21   
Generated by ForceBalance from scan.xyz: Frame 1 of 24
C        1.0881087760    0.2984842766    1.8888350015
C        1.3322331706   -0.2014565462    3.1675833584
C       -0.0496179057   -1.7665460069    1.4009168791
C        0.3815315422   -0.5048580677    1.0043556994
C        0.8561709573   -1.4777333502    3.5145021898
C        1.5669765376   -1.3750703980    6.0433835409
C        0.3060507933   -3.3838405143    5.2097622814
C        1.7123499158   -3.5637402363    4.7644527979
C        1.1388894106   -2.1392919938    4.8349372322
N        0.1879806993   -2.2373312089    2.6277623970
O        2.0982111419   -1.8728976190    7.0209631752
O        1.2518729547   -0.0494579037    6.0150923362
F        0.1149251368   -0.0679771884   -0.2508447150
H        1.4365200029    1.2805628519    1.5827947600
H        1.8772019924    0.3987053414    3.8835633161
H       -0.5951646734   -2.4044542698    0.7079222007
H       -0.4872293879   -3.6168836197    4.5094120109
H        0.0861250808   -3.5002508393    6.2652546086
H        2.4628084221   -3.8085260493    5.5076140433
H        1.8778273949   -3.9316467302    3.7577664124
H        1.5378769145    0.3023198255    6.8805337284
21   
Generated by ForceBalance from scan.xyz: Frame 2 of 24
C        1.2235795644    0.2098883043    1.8417156050
C        1.4722139441   -0.3160817455    3.1073196445
C       -0.2429175430   -1.6644278742    1.4603160131
C        0.3458903970   -0.4850284032    1.0183093666
C        0.8297869753   -1.5021801793    3.5037706601
C        1.4306493503   -1.3526708225    6.0389759252
C        0.3966681634   -3.4728908326    5.1613663618
C        1.8305026301   -3.5219704066    4.7658474015
C        1.1199464509   -2.1594890923    4.8233034928
N       -0.0022189820   -2.1587556318    2.6793368023
O        1.9138120924   -1.8026910238    7.0636301346
O        1.0714657784   -0.0424541033    5.9416280109
F        0.0661094899   -0.0194180601   -0.2234761674
H        1.6946426268    1.1256099360    1.4967975549
H        2.1512172409    0.1934938717    3.7801604105
H       -0.9221737757   -2.2159239090    0.8129897701
H       -0.3507960477   -3.7721716264    4.4367648937
H        0.1553907940   -3.6185164112    6.2084247824
H        2.5735898807   -3.7027257390    5.5348307753
H        2.0708719424   -3.8672328186    3.7655851032
H        1.2811951285    0.3500057483    6.8111894641
21   
Generated by ForceBalance from scan.xyz: Frame 3 of 24
C        1.3133384402    0.1284051113    1.8075727716
C        1.5811416640   -0.4317370249    3.0533234447
C       -0.4251664563   -1.5259683206    1.5552139225
C        0.2868338258   -0.4393658892    1.0604832389
C        0.8136848653   -1.5193501049    3.5050693769
C        1.3104877213   -1.3444379925    6.0440234800
C        0.4999343191   -3.5476349672    5.1148434748
C        1.9509400133   -3.4668837529    4.7857526007
C        1.1152496505   -2.1767525500    4.8217106224
N       -0.1639235562   -2.0527022638    2.7579751451
O        1.7124228152   -1.7674502434    7.1142986101
O        0.9594458233   -0.0394853197    5.8794452207
F       -0.0196474742    0.0630333787   -0.1602817654
H        1.8770937492    0.9714741011    1.4192459511
H        2.3731296849   -0.0268464457    3.6740714659
H       -1.2224573917   -1.9746748770    0.9657794793
H       -0.1893747473   -3.9024037953    4.3581528298
H        0.2269660579   -3.7302323965    6.1481611796
H        2.6699249184   -3.5901403318    5.5886611892
H        2.2723489148   -3.7798494449    3.7973579116
H        1.0967553959    0.3804799617    6.7504644084
21   
Generated by ForceBalance from scan.xyz: Frame 4 of 24
C        1.4122631960    0.0175625115    1.7628897113
C        1.6857288148   -0.5683652874    2.9954992314
C       -0.5451051483   -1.3928829562    1.6508080753
C        0.2711252065   -0.4139360398    1.0947155138
C        0.8145170226   -1.5433801013    3.5088218716
C        1.1649608871   -1.3411753359    6.0560100693
C        0.5844306566   -3.6051068226    5.0827281408
C        2.0447343611   -3.4066168692    4.8486010533
C        1.1044226150   -2.1922735442    4.8321257942
N       -0.2759088766   -1.9451695180    2.8407871440
O        1.4615962775   -1.7423908707    7.1680690100
O        0.8362196721   -0.0409738841    5.8264947488
F       -0.0479262432    0.1178045741   -0.1101179078
H        2.0533562843    0.7776005397    1.3261854554
H        2.5622792727   -0.2712826208    3.5629182551
H       -1.4335592259   -1.7322333394    1.1217466053
H       -0.0267156490   -4.0104818263    4.2848612438
H        0.2611880880   -3.8199556798    6.0951247905
H        2.7157955789   -3.4795726448    5.6979867920
H        2.4575692629   -3.6889388154    3.8850283268
H        0.8884072401    0.4014650365    6.6955970087
21   
Generated by ForceBalance from scan.xyz: Frame 5 of 24
C        1.5115046220   -0.1278845969    1.6565264308
C        1.7820677367   -0.7309374631    2.8826731651
C       -0.6246529241   -1.2572747459    1.7027721878
C        0.2805336349   -0.4075294579    1.0737962845
C        0.8230692849   -1.5712830277    3.4684723581
C        1.0174014576   -1.3529814970    6.0196583029
C        0.6635857196   -3.6553063415    5.0177054005
C        2.1190378393   -3.3473870666    4.8778790990
C        1.0947659074   -2.2099398221    4.8000386864
N       -0.3557898011   -1.8281276573    2.8832406598
O        1.2334244792   -1.7361896730    7.1561898066
O        0.6714934232   -0.0668612705    5.7458255940
F       -0.0428813608    0.1462142774   -0.1197895488
H        2.2192759543    0.5318057079    1.1632936515
H        2.7253248660   -0.5510790116    3.3900887506
H       -1.5842065725   -1.4760643047    1.2381249574
H        0.1376510611   -4.1044976505    4.1827723270
H        0.2911103274   -3.9002603533    6.0060823622
H        2.7361639932   -3.3779276387    5.7697034414
H        2.6145899961   -3.5988573957    3.9451018227
H        0.6365036843    0.3884112454    6.6091318682
21   
Generated by ForceBalance from scan.xyz: Frame 6 of 24
C        1.5558374994   -0.2811044052    1.5510334824
C        1.8384292359   -0.8889154934    2.7739470141
C       -0.7037409033   -1.1032552664    1.7963482448
C        0.2571618712   -0.4008035441    1.0724163549
C        0.8247667419   -1.5785112204    3.4535899853
C        0.8900919862   -1.3726668496    6.0060168501
C        0.7658212184   -3.6874370058    4.9733711472
C        2.1988191727   -3.2635786804    4.9113335896
C        1.0944137454   -2.2116226049    4.7874714576
N       -0.4223594739   -1.6820705137    2.9682128492
O        1.0316497495   -1.7615465013    7.1521868684
O        0.5312647620   -0.0951470247    5.7144443290
F       -0.0825136383    0.1648751011   -0.1110014270
H        2.3048572422    0.2654555353    0.9856634479
H        2.8336526527   -0.8272000670    3.2043074749
H       -1.7180837655   -1.1955744328    1.4125356005
H        0.3252914414   -4.1741552193    4.1099808874
H        0.3622810355   -3.9713078637    5.9389251442
H        2.7693107674   -3.2583452468    5.8340562277
H        2.7606857749   -3.4709455515    4.0057267053
H        0.4158441726    0.3527933099    6.5745132940
21   
Generated by ForceBalance from scan.xyz: Frame 7 of 24
C        1.6010275959   -0.4017528030    1.4685679040
C        1.8919276336   -1.0143126303    2.6888677987
C       -0.7230998966   -0.9019028199    1.9041446901
C        0.2668364227   -0.3549400275    1.0886370799
C        0.8507976200   -1.5491128027    3.4582257875
C        0.7750661629   -1.3925851619    6.0114612347
C        0.8794668582   -3.6871455669    4.9331981090
C        2.2789408251   -3.1590573062    4.9637436395
C        1.1116881782   -2.1870502392    4.7906340204
N       -0.4336573129   -1.4886968710    3.0680264583
O        0.8091218673   -1.8215251212    7.1515587511
O        0.4462806451   -0.1057337239    5.7314578352
F       -0.0835166615    0.2255784712   -0.0844851454
H        2.3714041657    0.0288459727    0.8357213990
H        2.9158188598   -1.0685048637    3.0457346391
H       -1.7672490291   -0.8598059641    1.5992610813
H        0.5341641228   -4.1929283661    4.0376792910
H        0.4393075157   -4.0166404359    5.8677786512
H        2.7925584814   -3.1325554447    5.9187922665
H        2.9081535245   -3.3163263928    4.0933215170
H        0.2457430465    0.3120121309    6.5909564903
21   
Generated by ForceBalance from scan.xyz: Frame 8 of 24
C        1.5258689782   -0.5579294037    1.3667788453
C        1.8527367638   -1.1464192924    2.5908948947
C       -0.7904989063   -0.7501417780    2.0225918385
C        0.1789662961   -0.3664304605    1.0959761616
C        0.8300839071   -1.5223748965    3.4704660748
C        0.6432817908   -1.4119366303    6.0218956421
C        0.9976855874   -3.6676411028    4.9155076002
C        2.3421105410   -3.0211925634    5.0292076658
C        1.1079106164   -2.1487758563    4.8040959552
N       -0.4684869758   -1.3178068425    3.1859722115
O        0.5489852540   -1.9000593748    7.1344013723
O        0.3819430779   -0.1030678837    5.7819146769
F       -0.2048640386    0.2012723608   -0.0730751420
H        2.2826099902   -0.2489189023    0.6517847444
H        2.8928809471   -1.2950977407    2.8616466875
H       -1.8455644892   -0.5901828688    1.8074105577
H        0.7530821077   -4.1888311867    3.9958387208
H        0.5342078963   -4.0464635763    5.8195646680
H        2.7985833520   -2.9655797226    6.0116275180
H        3.0345891978   -3.1201672259    4.1997956283
H        0.0972841643    0.2736736277    6.6364735071
21   
Generated by ForceBalance from scan.xyz: Frame 9 of 24
C        1.5117462865   -0.6903799831    1.2750348309
C        1.8499656385   -1.2797300861    2.4954823289
C       -0.7493322695   -0.5338032347    2.1012471308
C        0.1878785047   -0.3190005376    1.0915579782
C        0.8559884495   -1.4825893165    3.4618346053
C        0.5246858960   -1.4840735415    5.9997495846
C        1.1359474034   -3.6587111986    4.8320366702
C        2.4077624039   -2.9065250088    5.0721932692
C        1.1220375574   -2.1323006501    4.7858044760
N       -0.4195970536   -1.1057133306    3.2601400829
O        0.2340377148   -2.0693280421    7.0276257041
O        0.4161975041   -0.1386144173    5.8778515989
F       -0.2016603164    0.2614070508   -0.0695156541
H        2.2474540474   -0.5129970428    0.4962256403
H        2.8796380757   -1.5599575392    2.6888604802
H       -1.7859580766   -0.2339932321    1.9580987885
H        1.0098732216   -4.1585006079    3.8772401113
H        0.6392763971   -4.1132089994    5.6820110230
H        2.7819793706   -2.8537104560    6.0891377401
H        3.1749734793   -2.9154285282    4.3057059704
H        0.0342137537    0.1770038908    6.7189587497
21   
Generated by ForceBalance from scan.xyz: Frame 10 of 24
C        1.4484349999   -0.8762055244    1.2045791573
C        1.7883098874   -1.4613779814    2.4249450986
C       -0.7006009734   -0.3603514180    2.1710310936
C        0.1813920541   -0.3201838621    1.0937423256
C        0.8517782908   -1.4744839282    3.4693999260
C        0.3903294485   -1.5523720674    5.9793118534
C        1.2858671634   -3.6409214691    4.8160383106
C        2.4555181463   -2.7624221952    5.1456097727
C        1.1131601422   -2.1266545379    4.7920759431
N       -0.3691576006   -0.9288065914    3.3323451045
O       -0.1182885488   -2.2042935934    6.8720208315
O        0.4500529838   -0.1988080417    6.0126585136
F       -0.2035657187    0.2676778036   -0.0651107530
H        2.1412579286   -0.8416312107    0.3690383559
H        2.7750209682   -1.8935128309    2.5517002942
H       -1.6936599504    0.0767173615    2.0835372436
H        1.2720364029   -4.1327531993    3.8487496397
H        0.7906773447   -4.1674182828    5.6245011832
H        2.7604442744   -2.6921119977    6.1847998552
H        3.2687447232   -2.6661397418    4.4343774799
H       -0.0385758709    0.0734340087    6.8126391551
21   
Generated by ForceBalance from scan.xyz: Frame 11 of 24
C        1.3471987248   -1.0206069420    1.1674264604
C        1.6755345004   -1.6236821660    2.3802355689
C       -0.6385057937   -0.1748437110    2.2435584474
C        0.1693351742   -0.2852972598    1.1161572526
C        0.8174957123   -1.4718116373    3.4826713095
C        0.2570587611   -1.6302625613    5.9597533339
C        1.4144846705   -3.6105066876    4.8216054379
C        2.4774892261   -2.6149903767    5.1886093516
C        1.0852888288   -2.1259394293    4.8023477079
N       -0.3176876442   -0.7591865401    3.4017938865
O       -0.4370262495   -2.3247442642    6.6765375824
O        0.4410551439   -0.3061563482    6.1830885232
F       -0.1981683514    0.3272184554   -0.0356350332
H        1.9801956537   -1.1096353630    0.2895019997
H        2.5895166056   -2.2039172427    2.4567615800
H       -1.5634705230    0.3973057371    2.2024435642
H        1.4760801642   -4.1003249311    3.8549957857
H        0.9558918917   -4.1942484352    5.6123745843
H        2.7510850542   -2.5230347073    6.2351627627
H        3.2899190370   -2.4152467818    4.4972190214
H       -0.1440411327   -0.0720528462    6.9286274879
21   
Generated by ForceBalance from scan.xyz: Frame 12 of 24
C        1.2338299187   -1.1200529531    1.1370658614
C        1.5585856002   -1.7570852905    2.3323481937
C       -0.5529293954   -0.0189329317    2.3258814126
C        0.1583590431   -0.2391387800    1.1514635610
C        0.7994553064   -1.4900008796    3.4856750928
C        0.1693641572   -1.7305284687    5.9207441200
C        1.5604164627   -3.5871138521    4.8278421169
C        2.5239105852   -2.4899456241    5.1912391496
C        1.0937188777   -2.1433553534    4.8000495768
N       -0.2330958485   -0.6329516895    3.4699409354
O       -0.7040120483   -2.4243437154    6.4008248294
O        0.4602653379   -0.4908337024    6.3862809869
F       -0.2011549470    0.4091059185    0.0169039930
H        1.7908907895   -1.2943243115    0.2212634772
H        2.3926762926   -2.4514658570    2.3585197112
H       -1.3965498301    0.6685306352    2.3370826080
H        1.6707634829   -4.0880471781    3.8713777033
H        1.1584135071   -4.2068095467    5.6223438080
H        2.7924082110   -2.3656589175    6.2358260014
H        3.3071671221   -2.2141466575    4.4914647507
H       -0.2110657972   -0.2908556927    7.0666005374
21   
Generated by ForceBalance from scan.xyz: Frame 13 of 24
C       -0.1007255134   -1.6104106820    1.1834906919
C        0.1130314029   -2.2630186035    2.3962706322
C        0.7339764049    0.3941305216    2.2330564854
C        0.2171897034   -0.2593386567    1.1187121032
C        0.6358292376   -1.5449600227    3.4851746977
C        1.1911070518   -1.2490145892    5.9507797197
C        0.2931478864   -3.5157409614    5.2089233401
C        1.7419104997   -3.4767129881    4.8149014374
C        0.9304600208   -2.1906106532    4.8033080477
N        0.9388680824   -0.2402042990    3.3912981740
O        2.1860481420   -1.2497060913    6.6493021229
O        0.1325945579   -0.4367855269    6.1891760590
F        0.0257203147    0.4279052013   -0.0336307118
H       -0.5038079159   -2.1241640351    0.3157666206
H       -0.1261493408   -3.3180687504    2.4831834670
H        0.9873457175    1.4513570835    2.1812558304
H       -0.4371037369   -3.9495994621    4.5333011245
H        0.0533941763   -3.6370767865    6.2607694790
H        2.4930260904   -3.5641656788    5.5924276647
H        2.0248513714   -3.8736139471    3.8451222637
H        0.3970917379    0.1455562353    6.9266652784
21   
Generated by ForceBalance from scan.xyz: Frame 14 of 24
C       -0.2735376927   -1.5788151426    1.2240123095
C       -0.0803410545   -2.2267683439    2.4447074307
C        0.9073796220    0.3057702501    2.1579107055
C        0.2327300496   -0.2926405432    1.0963700598
C        0.6133908840   -1.5708249615    3.4726017803
C        1.0420227246   -1.2873262103    5.9733818854
C        0.4117071833   -3.6051706626    5.1641136001
C        1.8545967575   -3.4077389255    4.8069393503
C        0.9110877663   -2.2107130714    4.7935583002
N        1.0937822149   -0.3246132852    3.3195771695
O        1.8783301660   -1.3873529878    6.8515698603
O        0.0476522936   -0.3675884955    6.0196813591
F        0.0707381271    0.3892678506   -0.0635780130
H       -0.8054097859   -2.0466865691    0.4008877256
H       -0.4744258022   -3.2275558663    2.5845282657
H        1.3033193733    1.3147028278    2.0572537099
H       -0.2465823953   -4.1131134459    4.4676066787
H        0.1647007637   -3.7639923121    6.2089102865
H        2.5917527224   -3.4287354518    5.6020399003
H        2.1927804217   -3.7528841408    3.8352103816
H        0.2176322382    0.1742866569    6.8136231650
21   
Generated by ForceBalance from scan.xyz: Frame 15 of 24
C       -0.4487695973   -1.4907900359    1.2970045454
C       -0.2506306682   -2.1402276157    2.5177157059
C        1.0634698451    0.2167270809    2.0854308400
C        0.2270535203   -0.2963797343    1.0948384046
C        0.6164393562   -1.5796272811    3.4646927696
C        0.8992641423   -1.3331316920    5.9962799404
C        0.5454374344   -3.6743336837    5.0883324215
C        1.9739585460   -3.3150858538    4.8205463801
C        0.9088964973   -2.2213694685    4.7869937113
N        1.2534704448   -0.4152957865    3.2444402374
O        1.5399409270   -1.5351765877    7.0122005967
O        0.0242770797   -0.3039463145    5.8854692553
F        0.0731252181    0.3838134116   -0.0671536249
H       -1.1111713575   -1.8866658679    0.5329180697
H       -0.7804052148   -3.0632054283    2.7264512351
H        1.5859184231    1.1584773153    1.9267692505
H       -0.0065249323   -4.2249266833    4.3344166220
H        0.2605061164   -3.8942856804    6.1117825204
H        2.6620224167   -3.2841959878    5.6579907159
H        2.3982058377   -3.5874611933    3.8597167325
H        0.0898663833    0.1953597815    6.7217761463
21   
Generated by ForceBalance from scan.xyz: Frame 16 of 24
C       -0.5496859161   -1.4063746731    1.3899994496
C       -0.3450217424   -2.0475028564    2.6141963890
C        1.2427844561    0.0911877859    2.0040402793
C        0.2670256564   -0.3238965097    1.0977881695
C        0.6621388332   -1.5896745002    3.4726038599
C        0.7646090538   -1.3651381797    6.0211498571
C        0.6725856022   -3.7098437782    5.0434919258
C        2.0800697584   -3.2232295850    4.9007426729
C        0.9305180027   -2.2226955331    4.8050250366
N        1.4351280875   -0.5320491664    3.1676436528
O        1.1956578152   -1.6393094719    7.1274208450
O        0.0245950198   -0.2527921974    5.7885519800
F        0.1183400113    0.3428197575   -0.0725407050
H       -1.3178251944   -1.7235559002    0.6909167803
H       -0.9739521471   -2.8837341809    2.9013902350
H        1.8755439168    0.9461128807    1.7721524043
H        0.2351690052   -4.2723015452    4.2252317062
H        0.3275650557   -3.9861005834    6.0340741057
H        2.6926450483   -3.1609096109    5.7932128176
H        2.6035421880   -3.4264538893    3.9723331177
H       -0.0225051887    0.2201307844    6.6414153218
21   
Generated by ForceBalance from scan.xyz: Frame 17 of 24
C       -0.7108358175   -1.3484227747    1.4946685435
C       -0.4643356880   -1.9804871508    2.7147890843
C        1.2994105333   -0.0648562824    1.8857590385
C        0.1967372610   -0.3784550129    1.0920783920
C        0.6652595541   -1.6225233424    3.4616301260
C        0.6556137792   -1.4414384174    6.0143273526
C        0.8122983686   -3.7615199284    4.9786873281
C        2.1770851060   -3.1514523924    4.9190767615
C        0.9534806808   -2.2506457997    4.7930809190
N        1.5277665222   -0.6780076555    3.0496601164
O        0.9549010395   -1.7622960329    7.1511789661
O       -0.0229540684   -0.2984487847    5.7393363388
F        0.0157205046    0.2729522695   -0.0821686995
H       -1.5723517853   -1.5888783376    0.8787468599
H       -1.1468219484   -2.7374058764    3.0888571458
H        2.0057722598    0.6980126046    1.5631669607
H        0.4603894829   -4.3219099099    4.1182288465
H        0.4466891380   -4.0980439931    5.9428957867
H        2.7387361639   -3.0693113371    5.8429569425
H        2.7619803324   -3.2733656714    4.0135129469
H       -0.1588701804    0.1450574542    6.5985777133
21   
Generated by ForceBalance from scan.xyz: Frame 18 of 24
C       -0.7622362189   -1.2304424027    1.5772184304
C       -0.5132699870   -1.8533942504    2.7998137362
C        1.4253239776   -0.2221451232    1.7767079568
C        0.2355231728   -0.4043126068    1.0752902252
C        0.7041116289   -1.6252974576    3.4562879995
C        0.5597683572   -1.5083137534    6.0110658707
C        0.9419669852   -3.7797171083    4.9240864219
C        2.2587814357   -3.0712886176    4.9574212444
C        0.9829963112   -2.2559576149    4.7894320372
N        1.6537442986   -0.8240179247    2.9485083985
O        0.7541626024   -1.8765317950    7.1563155179
O       -0.0904637713   -0.3505227225    5.7237364813
F        0.0572348583    0.2290255566   -0.1091625528
H       -1.6889518308   -1.3730669286    1.0292662727
H       -1.2556899295   -2.5073811754    3.2476951734
H        2.2036849922    0.4238640088    1.3747514895
H        0.6726184746   -4.3284952001    4.0267998035
H        0.5500954250   -4.1716925672    5.8566559804
H        2.7628016627   -2.9823027212    5.9133370126
H        2.8983482716   -3.1124922174    4.0824030820
H       -0.3081207273    0.0544908638    6.5852931851
21   
Generated by ForceBalance from scan.xyz: Frame 19 of 24
C       -0.8367879817   -1.0900227352    1.6833292458
C       -0.5822375566   -1.7010016568    2.9089774425
C        1.4756108318   -0.3873594108    1.6832655700
C        0.2233454501   -0.4254400673    1.0771167431
C        0.7007923926   -1.6184458114    3.4711508140
C        0.4559473436   -1.5841572109    6.0270813068
C        1.0568115549   -3.7831708667    4.8882301081
C        2.3095838141   -2.9764174951    4.9999271964
C        0.9820271870   -2.2548180164    4.8017751119
N        1.7079124491   -0.9745207795    2.8634795290
O        0.5934463404   -2.0012045362    7.1639064667
O       -0.2093258580   -0.4292316893    5.7581829829
F        0.0414111271    0.1879076782   -0.1172738043
H       -1.8125779076   -1.1231676148    1.2077869436
H       -1.3692745340   -2.2343350088    3.4340407740
H        2.3024033320    0.1300400618    1.2003322473
H        0.8650346668   -4.3165499501    3.9621515406
H        0.6561827556   -4.2336387994    5.7902818702
H        2.7644201929   -2.8818957353    5.9796284812
H        2.9839192088   -2.9309242860    4.1521687035
H       -0.4891437704   -0.0759114514    6.6245900544
21   
Generated by ForceBalance from scan.xyz: Frame 20 of 24
C       -0.8653297941   -0.9166054737    1.7881325178
C       -0.6242627513   -1.5171774894    3.0204624367
C        1.5152636467   -0.5403210919    1.6304640296
C        0.2364337224   -0.4236853798    1.0967630319
C        0.6899812430   -1.5926442098    3.5105508463
C        0.3447835175   -1.6796918313    6.0650727969
C        1.1523664693   -3.7734172826    4.8559038335
C        2.3331302274   -2.8848160780    5.0632780496
C        0.9649215511   -2.2491263208    4.8333471611
N        1.7347678697   -1.1143416516    2.8203621871
O        0.4358291982   -2.1666506669    7.1787218140
O       -0.3402441472   -0.5257330367    5.8406947744
F        0.0666078000    0.1707856060   -0.1090263849
H       -1.8635245661   -0.8312384549    1.3689682358
H       -1.4452906725   -1.9199124713    3.6055014088
H        2.3752096892   -0.1589794819    1.0832067925
H        1.0406793982   -4.2705259659    3.8972545274
H        0.7427225947   -4.2922771726    5.7161801883
H        2.7322481628   -2.8037770867    6.0681342023
H        3.0380774902   -2.7475212800    4.2517152105
H       -0.6732847614   -0.2427406602    6.7140916760
21   
Generated by ForceBalance from scan.xyz: Frame 21 of 24
C       -0.8734529997   -0.7672035875    1.8323518339
C       -0.6467211079   -1.3455974246    3.0779100876
C        1.5210486202   -0.7196214998    1.5366243049
C        0.2416569216   -0.4524435780    1.0631403107
C        0.6719658512   -1.5747294887    3.5074956376
C        0.2416184505   -1.7841771632    6.0559637028
C        1.2585065694   -3.7503118325    4.7915773314
C        2.3514514199   -2.7840338791    5.0950915411
C        0.9442590837   -2.2455650125    4.8237532086
N        1.7280817606   -1.2699770841    2.7393563276
O        0.2730311857   -2.3608354480    7.1294912183
O       -0.4305253312   -0.6112119077    5.8960323796
F        0.0835958317    0.1123445893   -0.1585899177
H       -1.8742206885   -0.5679287375    1.4606771711
H       -1.4828573129   -1.6117120446    3.7155387070
H        2.3923730742   -0.4806784148    0.9298777197
H        1.2327929223   -4.2051693202    3.8063656365
H        0.8490580776   -4.3389379208    5.6056239579
H        2.6923031258   -2.7152060440    6.1220610481
H        3.0769191825   -2.5554666692    4.3237133504
H       -0.8081042123   -0.4040996977    6.7726402744
21   
Generated by ForceBalance from scan.xyz: Frame 22 of 24
C       -0.8668259891   -0.6466653379    1.8655843664
C       -0.6498631545   -1.1869912983    3.1309441537
C        1.4874290582   -0.9462760048    1.4438383938
C        0.2308390038   -0.5270010930    1.0217150228
C        0.6485394289   -1.5737804362    3.5067609441
C        0.1618220038   -1.8748660569    6.0529267084
C        1.3823044117   -3.7047471687    4.7691249281
C        2.3730283528   -2.6580953889    5.1406503999
C        0.9291165780   -2.2364369210    4.8257473486
N        1.6866362581   -1.4588238292    2.6628793712
O        0.1517431769   -2.5291252436    7.0813529708
O       -0.5049081808   -0.6907743417    5.9607023229
F        0.0790921332   -0.0074392761   -0.2209097753
H       -1.8522887414   -0.3307582632    1.5362065937
H       -1.4785132724   -1.2993053646    3.8195463720
H        2.3463080523   -0.8631231101    0.7805184005
H        1.4364776000   -4.1253508280    3.7703112835
H        0.9956501292   -4.3514739546    5.5491723769
H        2.6655111695   -2.5859458038    6.1822810097
H        3.1017053728   -2.3494208566    4.4010012123
H       -0.9150838729   -0.5542771351    6.8366449628
21   
Generated by ForceBalance from scan.xyz: Frame 23 of 24
C       -0.8325653080   -0.4874613580    1.9125681613
C       -0.6308438188   -1.0065028086    3.1911161824
C        1.4208545857   -1.1545137584    1.3884588989
C        0.2190134378   -0.5651537757    1.0098183459
C        0.6121840323   -1.5746839107    3.5193766508
C        0.0797436665   -1.9866525921    6.0603505590
C        1.4951971807   -3.6511825815    4.7660058847
C        2.3745522132   -2.5304984102    5.1894007729
C        0.9007838117   -2.2352055261    4.8389257504
N        1.6056743256   -1.6484833531    2.6152438895
O        0.0683554388   -2.7092652913    7.0418369747
O       -0.6281308500   -0.8222476371    6.0381028466
F        0.0781941093   -0.0748835145   -0.2460812382
H       -1.7769580300   -0.0375421712    1.6206379800
H       -1.4277432055   -0.9606675078    3.9209886927
H        2.2449202104   -1.2270671266    0.6810263351
H        1.6189536731   -4.0339688236    3.7588842724
H        1.1477692441   -4.3488241537    5.5196042151
H        2.6320478258   -2.4517929519    6.2399127613
H        3.0899135524   -2.1421040932    4.4741786019
H       -1.0642249489   -0.7685717905    6.9107198578
21   
Generated by ForceBalance from scan.xyz: Frame 24 of 24
C        0.9304075106    0.4147123742    1.9537298662
C        1.1632146930   -0.0940586558    3.2327872201
C        0.2219077238   -1.7891369910    1.3030568380
C        0.4515821360   -0.4540324002    0.9849777351
C        0.9087791046   -1.4514560608    3.4953614873
C        1.6476524765   -1.4640794458    6.0479103803
C        0.1938164527   -3.3160762191    5.1581786049
C        1.5820524041   -3.6170775102    4.7365710544
C        1.1429327092   -2.1400963693    4.8158562632
N        0.4499333475   -2.2683662229    2.5264785172
O        1.9995027612   -2.0595453903    7.0524106456
O        1.6587290665   -0.1016977227    6.0155145930
F        0.2077763430   -0.0117010877   -0.2729981650
H        1.1155793013    1.4579378599    1.7148701583
H        1.5339940200    0.5594286785    4.0078290091
H       -0.1510117803   -2.4787273098    0.5477831120
H       -0.6005940294   -3.4672117051    4.4362188836
H       -0.0617717996   -3.4226562664    6.2065593065
H        2.2906620480   -3.9322364345    5.4934713117
H        1.7319417893   -3.9811581602    3.7270825921
H        1.9859865699    0.1707632589    6.8951409239
