30

C     -0.21880   -3.20674    0.32030
C      3.46149   -2.90959   -0.25025
C     -0.60131   -1.88428    0.30482
C      3.85836   -4.22872   -0.23973
C      1.67063   -1.18297   -0.08380
C      1.56584   -4.94103    0.13945
C      2.09915   -2.53858   -0.06782
C      1.14090   -3.58104    0.13098
C      0.34189   -0.83060    0.08969
C      2.89889   -5.25717   -0.04208
C     -0.69485    0.94229    1.56696
C      0.86086    1.61951   -0.39918
C      2.49960   -7.60242    0.16373
C     -0.15474    0.59287    0.09907
O      0.07024    1.64316    2.27344
O     -1.82979    0.45907    1.82705
O      3.41461   -6.54162   -0.04917
H     -0.95991   -3.98679    0.49086
H      4.20196   -2.12578   -0.39834
H     -1.63052   -1.59557    0.49789
H      4.89843   -4.51272   -0.37660
H      2.42212   -0.41292   -0.23504
H      0.81601   -5.71046    0.29575
H      1.69358    1.70728    0.30399
H      1.24939    1.36756   -1.39667
H      0.39115    2.60701   -0.45111
H      3.08714   -8.52306    0.13308
H      1.73092   -7.63730   -0.62059
H      2.00561   -7.51994    1.14143
H     -1.04781    0.62680   -0.53635
