23   

C       -4.8395027746   -6.8728477077   -2.0222486581
C        1.2367591109   -4.8201724486    3.1727502661
C       -3.3355728355   -4.8946904544   -1.4716640763
C        1.0742987628   -5.3682939023    1.9401176150
C       -3.7727014256   -6.5056367199    0.1795781784
C       -4.0131100264   -6.1339339903   -1.1174293856
C       -2.5758945630   -4.3762083332   -0.4440670977
C        0.7021341266   -3.5068438718    3.4416663359
C       -0.1404420995   -3.3643167175    1.3088993542
C       -1.8558197225   -3.1092718631   -0.4969829350
C       -0.8855133087   -2.6259284124    0.3053439557
N       -5.5075333932   -7.4768221146   -2.7605917163
N        0.0213855295   -2.8086316061    2.4708246005
N        0.3809554193   -4.6195926052    0.9900635097
O        0.8427676003   -3.0176252650    4.5491111919
S       -2.7152556589   -5.3748973619    1.0131663807
H        1.7570235298   -5.3319587127    3.9699311847
H       -3.4334205202   -4.4289863450   -2.4468842742
H        1.4744492601   -6.3556181044    1.7208762009
H       -4.1869418279   -7.3928141072    0.6450275058
H       -2.1558619323   -2.4460585531   -1.3021382144
H       -0.6967058099   -1.5599030846    0.2886724282
H        0.2063233992   -4.9616836580    0.0522963464
23   

C       -4.5231667669   -7.0161247004   -1.9710647692
C        1.3124651755   -4.8947794883    3.0968783563
C       -3.1738407547   -4.9317808196   -1.4118557403
C        0.9585513186   -5.4550814397    1.9108648440
C       -3.8239845607   -6.3831825941    0.3166737172
C       -3.8678205213   -6.1552057926   -1.0346200785
C       -2.6029852662   -4.2822133003   -0.3396613593
C        0.9433416501   -3.5272747519    3.3737952805
C       -0.1119864604   -3.3521966213    1.3398490926
C       -1.8925396744   -3.0039293597   -0.3854846690
C       -0.8861604128   -2.5637883956    0.3957690864
N       -5.0509193142   -7.7195741125   -2.7344145726
N        0.2323695136   -2.7872372055    2.4568363229
N        0.2405743873   -4.6637395737    1.0156514482
O        1.2525203177   -3.0274474063    4.4415903677
S       -2.9385207732   -5.1314363974    1.1782379200
H        1.8659418194   -5.4366073542    3.8506276956
H       -3.1236900894   -4.5723234014   -2.4346054755
H        1.2312106028   -6.4836198032    1.6855223543
H       -4.2838127324   -7.2349600724    0.8050732387
H       -2.2057994058   -2.3251924896   -1.1725242035
H       -0.6717240282   -1.5023681184    0.4002080232
H       -0.0793916776   -5.0122848221    0.1191932066
23   

C       -4.2289611733   -7.1187539179   -2.0247834988
C        1.2521877439   -5.1081355075    3.0569588316
C       -3.0406647212   -4.9613266818   -1.3832767003
C        0.7219811298   -5.6369603605    1.9235680801
C       -3.9507013384   -6.3220542418    0.3016686341
C       -3.7643902587   -6.1802198384   -1.0496430201
C       -2.6858893365   -4.2274822960   -0.2751960064
C        1.0512700821   -3.7089426002    3.3479951444
C       -0.1833772280   -3.4382359183    1.4275893506
C       -1.9832621180   -2.9375394695   -0.2452337877
C       -0.9595047789   -2.5737040771    0.5508525503
N       -4.6004611276   -7.8855900860   -2.8184130264
N        0.3276917556   -2.9059055844    2.4959845815
N       -0.0021637394   -4.7821551041    1.0945009242
O        1.5186386307   -3.2360482303    4.3695746888
S       -3.2544634886   -4.9912636094    1.2173010973
H        1.8250744875   -5.6984567595    3.7579020570
H       -2.8143686589   -4.6663239796   -2.4030243018
H        0.8651914499   -6.6890787966    1.6878409492
H       -4.4708305994   -7.1559643225    0.7596921469
H       -2.2984772328   -2.2081929257   -0.9848511938
H       -0.7113604701   -1.5211305418    0.6095693303
H       -0.4503748188   -5.1020037294    0.2429706730
23   

C       -3.9342497524   -7.2301169543   -2.0034800277
C        1.2306671733   -5.2083279921    2.9801429816
C       -2.8995899590   -5.0004519707   -1.3428390895
C        0.5491258477   -5.7242353565    1.9245749999
C       -4.0438333611   -6.2649224766    0.2729032718
C       -3.6472744177   -6.2126327154   -1.0391510171
C       -2.7462589441   -4.1799471092   -0.2514413885
C        1.1673187357   -3.7901868557    3.2397374009
C       -0.2252711304   -3.4729658408    1.4369305325
C       -2.0581094473   -2.8783394278   -0.1748922471
C       -1.0065030573   -2.5665569438    0.6048532534
N       -4.1605575121   -8.0613735801   -2.7867595877
N        0.4283804726   -2.9552214040    2.4326036690
N       -0.1871399328   -4.8373404464    1.1414965149
O        1.7694819283   -3.3278576227    4.1933718170
S       -3.5251954237   -4.8539060695    1.1866542624
H        1.8251490022   -5.8228608685    3.6411214346
H       -2.5108451083   -4.7732340073   -2.3306899615
H        0.5864938209   -6.7904592561    1.7128691387
H       -4.6162845902   -7.0792120355    0.7032179632
H       -2.4044980890   -2.1096313800   -0.8586490041
H       -0.7238019869   -1.5235368064    0.6780777109
H       -0.7409130968   -5.1432267200    0.3485443738
23   

C       -3.6712074010   -7.2723880888   -1.9717722013
C        1.2158039762   -5.2212832423    2.9356679636
C       -2.7765390183   -4.9948424775   -1.2708717584
C        0.3879951156   -5.7328886797    1.9882268808
C       -4.1773757909   -6.1836858515    0.1926349998
C       -3.5600887005   -6.1987588497   -1.0323368605
C       -2.8224693223   -4.1126633279   -0.2195892088
C        1.2758985343   -3.7923520235    3.1265929313
C       -0.2794524050   -3.4547259185    1.4647710033
C       -2.1545817800   -2.8016113928   -0.0838936948
C       -1.0762537401   -2.5252193828    0.6711194538
N       -3.7547599841   -8.1496070732   -2.7327516462
N        0.5116283072   -2.9430408292    2.3590780277
N       -0.3701224547   -4.8307942733    1.2443483631
O        2.0102296307   -3.3322364927    3.9838678785
S       -3.8313861219   -4.7164066985    1.0998670035
H        1.8384430504   -5.8470017584    3.5591381576
H       -2.2198412239   -4.8173694122   -2.1861559583
H        0.3308865307   -6.8072947876    1.8287719842
H       -4.8120889342   -6.9810601111    0.5634017416
H       -2.5572722832   -1.9906335529   -0.6827829830
H       -0.7699044390   -1.4889333648    0.7465611079
H       -1.0191527190   -5.1306317386    0.5244581874
23   

C       -3.4691423719   -7.3207760211   -1.9297234824
C        1.2390506343   -5.2509332716    2.8734163349
C       -2.6725533988   -5.0250371743   -1.1718906399
C        0.2730098716   -5.7558821376    2.0631604142
C       -4.3520380318   -6.1232513022    0.0483593365
C       -3.5135703857   -6.2055147673   -1.0342935601
C       -2.8957445726   -4.0950196936   -0.1864710050
C        1.4082507480   -3.8213061602    2.9669934235
C       -0.3102922518   -3.4698408123    1.4766805997
C       -2.2448063262   -2.7825088333    0.0095313721
C       -1.1350841041   -2.5282283785    0.7258710696
N       -3.4277847175   -8.2322191120   -2.6529552624
N        0.6106987815   -2.9656422976    2.2418715288
N       -0.5136407147   -4.8463458027    1.3587150781
O        2.2680277032   -3.3655870530    3.7012046051
S       -4.1516052257   -4.6190825420    0.9392651638
H        1.8936631658   -5.8824138884    3.4570405030
H       -1.9513839936   -4.8955800648   -1.9736559035
H        0.1322681307   -6.8310590831    1.9783352491
H       -5.0637145862   -6.8932633170    0.3255538259
H       -2.7241835057   -1.9340545215   -0.4689220255
H       -0.8134559153   -1.4960174500    0.7947153985
H       -1.2550384796   -5.1412330780    0.7320648176
23   

C       -3.7543404630   -7.7369727919   -0.6884039150
C        1.0832608767   -4.9749960984    3.3238141432
C       -2.5894590470   -5.4736829018   -0.6759292652
C       -0.0758663073   -5.4525543004    2.8009675081
C       -4.7062419779   -5.6859876309    0.3181519901
C       -3.7064134776   -6.3479064362   -0.3481546433
C       -2.7725535376   -4.1859538662   -0.2321593216
C        1.6359986871   -3.7445801679    2.8126292844
C       -0.0999128334   -3.5280433324    1.3163937073
C       -1.8844894846   -3.0202834267   -0.3997262297
C       -0.7333249351   -2.7612427496    0.2483604353
N       -3.7919425032   -8.8691942993   -0.9570294146
N        1.0081159236   -3.0537614345    1.8016367310
N       -0.6750226187   -4.7111438808    1.7839751004
O        2.6729479759   -3.3105442194    3.2841780041
S       -4.3296980167   -3.9864370453    0.5760898747
H        1.6148339749   -5.4840265752    4.1151647408
H       -1.7113026657   -5.8053224994   -1.2227032939
H       -0.5061744369   -6.3796654231    3.1728487356
H       -5.6288126745   -6.1519793465    0.6466973032
H       -2.2330873482   -2.2551705712   -1.0865536108
H       -0.1996917921   -1.8609949451   -0.0319327848
H       -1.5371004780   -5.0025430563    1.3355235374
23   

C       -3.6024021696   -7.7545379168   -0.5852660691
C        1.0921920684   -5.0332954181    3.2827612686
C       -2.5249155558   -5.4493830146   -0.5191816932
C       -0.1550602499   -5.4029330909    2.8915699878
C       -4.7902600087   -5.6792939317    0.0529359050
C       -3.6605751487   -6.3441722504   -0.3506794654
C       -2.8244022789   -4.1413877275   -0.2150606391
C        1.7081622585   -3.8756234752    2.6819537195
C       -0.1386343904   -3.5205791323    1.3546977284
C       -1.9631928950   -2.9534870915   -0.3040592833
C       -0.7985019569   -2.7169289226    0.3317428923
N       -3.5562641401   -8.9036856504   -0.7665943285
N        1.0518951919   -3.1470388312    1.7166754532
N       -0.7784807844   -4.6270088827    1.9154662640
O        2.8255116386   -3.5388082269    3.0341923402
S       -4.5178303120   -3.9518615256    0.2487824958
H        1.6487451649   -5.5762661367    4.0333536546
H       -1.5488908813   -5.7814597454   -0.8620700792
H       -0.6340643873   -6.2739723971    3.3330131546
H       -5.7467265759   -6.1592306607    0.2288734222
H       -2.3517067759   -2.1353382372   -0.9026899611
H       -0.2628337719   -1.8152330160    0.0601118809
H       -1.7035861834   -4.8426513142    1.5592413443
23   

C       -3.4685158697   -7.7664875963   -0.4736914194
C        1.0851003179   -5.0779816159    3.2441163908
C       -2.4823082770   -5.4226054995   -0.3641021240
C       -0.2239895693   -5.3372257211    2.9899436237
C       -4.8081154047   -5.7023199584   -0.2126833331
C       -3.6061051543   -6.3474559418   -0.3515063096
C       -2.8655498282   -4.1085318843   -0.2097524275
C        1.7394706888   -3.9945336152    2.5522030875
C       -0.1904787942   -3.5002453399    1.4003503063
C       -2.0469325253   -2.8938293911   -0.2077348503
C       -0.8758102927   -2.6647782064    0.4223335443
N       -3.3604832219   -8.9223687524   -0.5626592565
N        1.0580789283   -3.2287594591    1.6342895555
N       -0.8704245290   -4.5261170259    2.0582405735
O        2.9127671783   -3.7566242328    2.7816978982
S       -4.6212809683   -3.9573529404   -0.0862290403
H        1.6635719117   -5.6559467992    3.9507596107
H       -1.4519709677   -5.7405987420   -0.4979351229
H       -0.7324776688   -6.1510813154    3.5019773325
H       -5.7678908407   -6.2063939780   -0.1863801812
H       -2.4668275487   -2.0458540643   -0.7399796527
H       -0.3451360789   -1.7565736991    0.1631460837
H       -1.8402600476   -4.6666896855    1.7960949270
23   

C       -3.3754531705   -7.7452381952   -0.3897554668
C        1.0741643657   -5.1350835713    3.2284696812
C       -2.4412403317   -5.3836753447   -0.2239680427
C       -0.2717003013   -5.2715146102    3.1029551327
C       -4.7519777915   -5.6922386926   -0.4979016994
C       -3.5418895138   -6.3241353552   -0.3736075438
C       -2.8520739020   -4.0671543493   -0.2180395087
C        1.7597746920   -4.1302757803    2.4528235665
C       -0.2129178106   -3.4794204484    1.4646513679
C       -2.0786683971   -2.8324699897   -0.1094899704
C       -0.9083155720   -2.6098224394    0.5268110390
N       -3.2464558641   -8.9024497249   -0.3922505377
N        1.0709763740   -3.3210315094    1.5786855419
N       -0.9239138552   -4.4179403949    2.2140717028
O        2.9662585653   -4.0012233382    2.5690116224
S       -4.6017678484   -3.9408239339   -0.4325015635
H        1.6595997647   -5.7547456106    3.8928315012
H       -1.4041042669   -5.6978109249   -0.1478793839
H       -0.8037589060   -6.0244615995    3.6801702637
H       -5.6965515159   -6.2094180286   -0.6245933645
H       -2.5170105880   -1.9641758071   -0.5917150404
H       -0.3787551468   -1.6956199720    0.2878134618
H       -1.9220538228   -4.4727345006    2.0430219698
23   

C       -3.3553769932   -7.7594070453   -0.2891352506
C        1.1118082974   -5.1238897541    3.1668323798
C       -2.4615479542   -5.3848054074   -0.0935134659
C       -0.2456198270   -5.1824212927    3.1763488906
C       -4.6909251080   -5.7275210518   -0.7432987274
C       -3.5208682515   -6.3409963573   -0.3798766825
C       -2.8626177378   -4.0713657039   -0.2335140624
C        1.7747591502   -4.1796098430    2.3004828469
C       -0.2440772084   -3.4425448854    1.4829129632
C       -2.1511503952   -2.8123542944   -0.0390065839
C       -0.9804318030   -2.5647851851    0.5881849028
N       -3.2286269088   -8.9138525896   -0.2047623578
N        1.0512460629   -3.3548406561    1.4701120835
N       -0.9325175799   -4.3132832476    2.3293230759
O        2.9920361772   -4.1171960249    2.2994613635
S       -4.5516587611   -3.9746384941   -0.7477729160
H        1.7232979509   -5.7616091736    3.7893786106
H       -1.4560223511   -5.6951028902    0.1729963281
H       -0.7601456174   -5.8881524107    3.8247774948
H       -5.6004423607   -6.2585044482   -1.0009413884
H       -2.6229821883   -1.9418856120   -0.4842455952
H       -0.4779762085   -1.6330160313    0.3594374830
H       -1.9442673880   -4.3071637838    2.2638802265
23   

C       -4.2480567943   -7.2417518046    1.0214294094
C        1.1315106115   -4.9927549961    3.1382050867
C       -2.8716326808   -5.1600315869    0.5250979608
C        0.8205559137   -5.5736430672    1.9497717126
C       -4.6219611288   -5.7572094546   -0.9208316228
C       -3.9435959498   -6.0962677987    0.2197235451
C       -2.7604361569   -4.1385743421   -0.3980093149
C        0.8170352202   -3.6006843055    3.3515747210
C       -0.1217352863   -3.4462135029    1.2593106472
C       -1.8372076573   -3.0165727477   -0.5262728872
C       -0.7948012423   -2.6493256930    0.2501564303
N       -4.4902733919   -8.1818220090    1.6646212926
N        0.1857349651   -2.8624029939    2.3771593998
N        0.1971841907   -4.7781176994    0.9886223510
O        1.1098701052   -3.0743287465    4.4111868805
S       -3.9856809798   -4.2969546115   -1.6641541442
H        1.6129566637   -5.5353306778    3.9394936152
H       -2.2609053960   -5.2635307137    1.4147511521
H        1.0544802656   -6.6212349467    1.7733363592
H       -5.4566572888   -6.3210808236   -1.3216771737
H       -2.0583226516   -2.3303367417   -1.3378568458
H       -0.4651410226   -1.6193672503    0.1952910077
H       -0.0705849156   -5.1370298268    0.0793003086
23   

C       -4.3452845360   -7.2069032185    1.0164427763
C        1.1422985533   -5.1464956475    3.1478178204
C       -2.9887915372   -5.0920913774    0.6121712844
C        0.6652617134   -5.7009743381    2.0027701589
C       -4.4349450245   -5.8721273894   -1.0641538089
C       -3.9518824596   -6.1014973009    0.1974049227
C       -2.7571932226   -4.1329223614   -0.3532039301
C        0.9711341940   -3.7320987327    3.3755906991
C       -0.1502209789   -3.5000799975    1.3815466458
C       -1.8789630934   -2.9677805115   -0.3733213505
C       -0.8476421005   -2.6432061208    0.4367715884
N       -4.6590927062   -8.1146262851    1.6748430693
N        0.3135032450   -2.9440179621    2.4592702557
N        0.0220138737   -4.8561412221    1.0987758990
O        1.4089757594   -3.2306737237    4.3966348894
S       -3.7390733241   -4.4311895275   -1.7931959382
H        1.6519429678   -5.7269934704    3.9037638730
H       -2.5325961944   -5.0951520141    1.5971936558
H        0.7875036020   -6.7655948114    1.8159823320
H       -5.1641318102   -6.5035252924   -1.5592987489
H       -2.0998796470   -2.2368303891   -1.1449998059
H       -0.5284558238   -1.6083364053    0.4492807908
H       -0.3772708493   -5.1946800938    0.2304857246
23   

C       -4.4308736994   -7.1527961805    1.0103377012
C        1.1764914242   -5.1968565454    3.1113547377
C       -3.0935323135   -5.0179580772    0.6481615753
C        0.5598113918   -5.7427261770    2.0308708789
C       -4.2302936709   -5.9868327662   -1.1626016906
C       -3.9460869162   -6.0979655934    0.1737923145
C       -2.7394096104   -4.1317516525   -0.3474070289
C        1.1129099185   -3.7704347842    3.3177786370
C       -0.1697215891   -3.5062747395    1.4265637758
C       -1.9239268504   -2.9207490960   -0.2930981808
C       -0.8934295161   -2.6200102662    0.5264911410
N       -4.8186321073   -8.0193628768    1.6844965241
N        0.4241579891   -2.9604147481    2.4443158762
N       -0.1126261116   -4.8768777871    1.1693532853
O        1.6715276933   -3.2775268353    4.2825300354
S       -3.4726745400   -4.5770352772   -1.8925258041
H        1.7191784457   -5.7932006902    3.8310470187
H       -2.7917216343   -4.9185171839    1.6869804223
H        0.5977640495   -6.8164396786    1.8608917078
H       -4.8527764602   -6.6851848396   -1.7108398738
H       -2.1671045030   -2.1618073084   -1.0303164187
H       -0.5801729977   -1.5840741508    0.5715029366
H       -0.6202092622   -5.2071184953    0.3558157577
23   

C       -4.5612652889   -7.1282859949    0.9420087391
C        1.2278746560   -5.2074762299    3.0982509418
C       -3.2334060344   -4.9750175438    0.6618855109
C        0.4564219070   -5.7569893334    2.1243762859
C       -4.0130882181   -6.1039223301   -1.2428719015
C       -3.9630435253   -6.1153440332    0.1273974888
C       -2.7324729784   -4.1487683126   -0.3200279454
C        1.2746096899   -3.7726292720    3.2390427807
C       -0.1953498140   -3.5044997784    1.4888536881
C       -1.9857242357   -2.8952032933   -0.1915814842
C       -0.9538577988   -2.6053614509    0.6283814100
N       -5.0408715319   -7.9600119785    1.6006864526
N        0.5423315199   -2.9570553313    2.4072601585
N       -0.2580922403   -4.8861628671    1.3027967394
O        1.9698632931   -3.2765423114    4.1087643652
S       -3.1749778867   -4.7190293939   -1.9324060525
H        1.8146286633   -5.8068174444    3.7798139577
H       -3.1139279885   -4.7913663772    1.7261344872
H        0.4088515928   -6.8370738317    2.0049895359
H       -4.5140905421   -6.8593139214   -1.8381299403
H       -2.2645366888   -2.1113739411   -0.8891034752
H       -0.6476627937   -1.5679468023    0.6887997559
H       -0.8728816700   -5.2159119431    0.5663380221
23   

C       -4.6776713849   -7.1512692476    0.8449760286
C        1.2672592949   -5.1197756463    3.0660521130
C       -3.4030798713   -4.9573501548    0.6419725328
C        0.3679136578   -5.6884601428    2.2216160655
C       -3.7612407615   -6.2636295551   -1.2756929376
C       -3.9731589066   -6.1713324601    0.0762560558
C       -2.7580089119   -4.1824417872   -0.2941928628
C        1.3856417771   -3.6829035057    3.1105336737
C       -0.2592399607   -3.4487317948    1.5174679371
C       -2.1036579184   -2.8780463272   -0.1179319999
C       -1.0712571609   -2.5638417472    0.6896178942
N       -5.2436056692   -7.9549402647    1.4689782906
N        0.5969862870   -2.8839972786    2.3148841757
N       -0.4011369960   -4.8346141157    1.4323166292
O        2.1952756211   -3.1698456440    3.8636941309
S       -2.8608847285   -4.8905776025   -1.9087093518
H        1.9047598452   -5.7050672867    3.7133415499
H       -3.4914634877   -4.6887931661    1.6910389462
H        0.2643936779   -6.7702363962    2.1760994729
H       -4.1107179713   -7.0861646985   -1.8900411929
H       -2.4507828829   -2.0859235006   -0.7742205413
H       -0.7912939610   -1.5188556281    0.7479721269
H       -1.1035404240   -5.1781146641    0.7858974450
23   

C       -4.8025326614   -7.1374527938    0.7147667135
C        1.3283547700   -5.0773914922    3.0197569473
C       -3.5629973988   -4.9164579333    0.6134062142
C        0.3065026887   -5.6372410974    2.3216111500
C       -3.4973419177   -6.3585861898   -1.2386084683
C       -3.9796419090   -6.1852256558    0.0338220765
C       -2.7661642862   -4.1809535933   -0.2308747392
C        1.5267024986   -3.6498199721    2.9611872654
C       -0.2779370356   -3.4065913700    1.5529479263
C       -2.1811597213   -2.8446548457   -0.0123259082
C       -1.1349829466   -2.5214048686    0.7707805541
N       -5.4652552428   -7.9172439888    1.2699453944
N        0.6928023535   -2.8503348151    2.2135390280
N       -0.5040397797   -4.7840936575    1.5745277086
O        2.4468725993   -3.1454676904    3.5816120088
S       -2.5200530866   -4.9977203994   -1.7768737872
H        2.0062579953   -5.6630402031    3.6242237082
H       -3.8613879873   -4.5851841454    1.6040247229
H        0.1408821161   -6.7116766550    2.3555408018
H       -3.6970896913   -7.2318859594   -1.8498978932
H       -2.6118302532   -2.0382524647   -0.5978922119
H       -0.8654067115   -1.4736405483    0.8281851122
H       -1.2919191024   -5.1212593325    1.0316046489
23   

C       -4.9086376261   -7.1296177826    0.5620406589
C        1.3783388646   -5.0748234957    2.9594530124
C       -3.7145291590   -4.8816015735    0.5658232904
C        0.2456263934   -5.6026671245    2.4274200503
C       -3.2480973172   -6.4319129552   -1.1356363684
C       -3.9825332217   -6.1955134036   -0.0013015272
C       -2.7823596848   -4.1728936296   -0.1513889512
C        1.6561977154   -3.6704577840    2.7811654567
C       -0.2882000159   -3.3864805373    1.5825792967
C       -2.2549737479   -2.8167435636    0.1081130942
C       -1.1828331683   -2.4930368062    0.8531899286
N       -5.6557287275   -7.8935665010    1.0243602594
N        0.7870243564   -2.8599289758    2.0871502444
N       -0.5957069930   -4.7410767590    1.7259016556
O        2.6768549398   -3.1964921264    3.2497558734
S       -2.2064435239   -5.0770597340   -1.5548793779
H        2.0876799340   -5.6694497256    3.5172696467
H       -4.2062636613   -4.5043307116    1.4577539872
H        0.0185315133   -6.6588499772    2.5535788716
H       -3.3031098936   -7.3468673101   -1.7153533217
H       -2.7870923006   -1.9976818096   -0.3657895557
H       -0.9123973764   -1.4453479596    0.9066367378
H       -1.4611380910   -5.0552325546    1.2996925878
23   

C       -5.0119012465   -7.1112247673    0.3761366617
C        1.4319620831   -5.0592392703    2.9126060244
C       -3.8395716203   -4.8549817108    0.4941284008
C        0.2166490855   -5.5481350042    2.5539321263
C       -3.0574158967   -6.4838011203   -1.0067826651
C       -3.9950425286   -6.1977777850   -0.0471586358
C       -2.7893796781   -4.1723635583   -0.0686024057
C        1.7641419990   -3.6899405453    2.6018323655
C       -0.2875751411   -3.3644461978    1.6122336702
C       -2.3132658330   -2.8046981986    0.2249111366
C       -1.2142037863   -2.4712279298    0.9249885105
N       -5.8341174912   -7.8573673344    0.7265867314
N        0.8655699149   -2.8733492427    1.9535557720
N       -0.6528206042   -4.6829008900    1.8926707193
O        2.8585068509   -3.2527784839    2.9134798765
S       -1.9541691843   -5.1422134680   -1.2872834177
H        2.1684957481   -5.6598597675    3.4270879615
H       -4.4901080354   -4.4413911957    1.2589168153
H       -0.0520446180   -6.5772232038    2.7815641993
H       -3.0006815577   -7.4268417978   -1.5393148480
H       -2.9350824768   -1.9900057084   -0.1330463774
H       -0.9426796338   -1.4232051613    0.9617930129
H       -1.5748163487   -4.9713509181    1.5826621780
23   

C       -5.8348668273   -6.1548411503    0.4981275438
C        0.9832277125   -5.0674571372    3.3139556695
C       -4.0805507456   -4.3326850754    0.2144114976
C       -0.3526435313   -5.2130449546    3.1161302765
C       -3.5487392256   -6.5461853078   -0.3655860581
C       -4.5257099185   -5.7161571415    0.1223297524
C       -2.7808332314   -4.1613058387   -0.1969907950
C        1.7139586327   -4.0992448781    2.5322121709
C       -0.1991903634   -3.4879004580    1.4114207664
C       -1.9946726664   -2.9152065596   -0.2496634384
C       -0.8463385153   -2.6578933702    0.4031810305
N       -6.8977035844   -6.5124176704    0.8115707992
N        1.0761592840   -3.3220128949    1.5921143399
N       -0.9494267683   -4.4056001102    2.1498152433
O        2.9147914161   -3.9757378463    2.7010735588
S       -2.0574240610   -5.6859406843   -0.7273215011
H        1.5276937545   -5.6533073593    4.0407899605
H       -4.7153104494   -3.5259301789    0.5677197103
H       -0.9198095150   -5.9367456012    3.6971889761
H       -3.6765166651   -7.6122608185   -0.5175550243
H       -2.4165754077   -2.1040575297   -0.8348605747
H       -0.2978831795   -1.7654530469    0.1276456619
H       -1.9367977811   -4.4661429146    1.9252329157
23   

C       -5.8964501918   -6.1723073019    0.1929453162
C        1.1139076616   -5.0179696900    3.2653449084
C       -4.1349359169   -4.3387818612    0.0778744917
C       -0.2421258916   -5.0815437461    3.2155374470
C       -3.4977037043   -6.5738133990   -0.2646697641
C       -4.5473919135   -5.7335641232    0.0055436253
C       -2.7846445017   -4.1673659525   -0.1217583624
C        1.8154784635   -4.1294827326    2.3702479464
C       -0.1643703636   -3.4412408216    1.4257252689
C       -2.0392274859   -2.9018557203   -0.1500222404
C       -0.8660428283   -2.6210437912    0.4493075904
N       -6.9932513044   -6.5292817350    0.3526152000
N        1.1302993891   -3.3503915449    1.4658708382
N       -0.8884969452   -4.2728328557    2.2824648394
O        3.0327262928   -4.0788621786    2.4080901826
S       -1.9750087208   -5.7100139822   -0.4362261115
H        1.6960395464   -5.6118263809    3.9556031135
H       -4.8279113886   -3.5243552591    0.2639327375
H       -0.7869393005   -5.7443183392    3.8840718425
H       -3.5901828497   -7.6494032478   -0.3660676052
H       -2.5150086118   -2.0828061534   -0.6802411695
H       -0.3396550883   -1.7263019940    0.1406162999
H       -1.8956287771   -4.2778976632    2.1643027015
23   

C       -5.9316046976   -6.2210116895   -0.1144125642
C        1.2333012219   -4.8311634813    3.1959719438
C       -4.2153092511   -4.3427267752   -0.0492620077
C       -0.1191811745   -4.8270617094    3.3248187925
C       -3.4822755941   -6.5728700325   -0.1266775051
C       -4.5798960637   -5.7517940264   -0.0968320650
C       -2.8534702361   -4.1378474805   -0.0185599096
C        1.8507604111   -4.0256674367    2.1698511472
C       -0.2030841423   -3.2903388418    1.4471540906
C       -2.1759453275   -2.8410428053   -0.0274044152
C       -0.9928834490   -2.4976805937    0.5197457641
N       -7.0318576872   -6.6023896030   -0.1223223157
N        1.0882724997   -3.2606564734    1.3170228095
N       -0.8463575039   -4.0348620589    2.4378239609
O        3.0634509821   -4.0366139066    2.0479216991
S       -1.9718609075   -5.6725101939   -0.0926016655
H        1.8740003160   -5.4191134876    3.8377441500
H       -4.9484319312   -3.5425628517   -0.0465762373
H       -0.6000183670   -5.4264315498    4.0946009827
H       -3.5331275906   -7.6550294724   -0.1696249926
H       -2.7119835477   -2.0392447272   -0.5254272454
H       -0.5229662262   -1.5818489801    0.1835270901
H       -1.8589997199   -3.9922796250    2.4532434080
23   

C       -5.9312178248   -6.2363480117   -0.4629945617
C        1.3107089092   -4.8534914655    3.1886684987
C       -4.2299689834   -4.3649982741   -0.1762789131
C       -0.0114789892   -4.7291023811    3.4759738616
C       -3.5327338466   -6.5979938266    0.0237525448
C       -4.6014546542   -5.7725444778   -0.2095646842
C       -2.8970837661   -4.1595119234    0.1108217185
C        1.8576816024   -4.1590384645    2.0477555743
C       -0.2074370708   -3.2984617605    1.5254584129
C       -2.2385632864   -2.8584407586    0.1328959242
C       -1.0451988291   -2.5009424778    0.6484871620
N       -7.0146680391   -6.6132437407   -0.6637373965
N        1.0567758013   -3.3815963704    1.2429553675
N       -0.7800164746   -3.9286384746    2.6319430565
O        3.0418925742   -4.2778702665    1.7849798658
S       -2.0448557858   -5.7021841156    0.2976100324
H        1.9786220476   -5.4573768962    3.7864274965
H       -4.9377544049   -3.5654517380   -0.3692591494
H       -0.4379865619   -5.2434469045    4.3341994862
H       -3.5911155994   -7.6804596753    0.0362911825
H       -2.7890165666   -2.0570506344   -0.3496953860
H       -0.5987582834   -1.5763124333    0.3049931408
H       -1.7754047982   -3.7964237526    2.7683722613
23   

C       -5.0520772167   -6.7217600305   -1.8893915895
C        1.3129014042   -4.8213888092    3.2602192687
C       -3.3874579789   -4.8600859352   -1.3969714360
C        1.2946797794   -5.3379084212    2.0035708417
C       -3.6042605767   -6.6423870466    0.1144485430
C       -4.0481250599   -6.1155354942   -1.0695071537
C       -2.4381355974   -4.4809708586   -0.4702372340
C        0.6499771842   -3.5662980757    3.5216357172
C       -0.0374332173   -3.4233470217    1.3342048013
C       -1.7053181007   -3.2237986619   -0.5244066598
C       -0.7606210701   -2.7164126152    0.2939963317
N       -5.8657392218   -7.2177264497   -2.5589169188
N       -0.0141993474   -2.8961483872    2.5200894653
N        0.6171550120   -4.6162095353    1.0215437455
O        0.6686052597   -3.1019804597    4.6483832397
S       -2.3692336845   -5.6428729854    0.8663907983
H        1.8111504763   -5.3155769811    4.0821995998
H       -3.6356135414   -4.2809439956   -2.2803729102
H        1.7931217435   -6.2807930119    1.7901908773
H       -3.9716348216   -7.5669875311    0.5449579984
H       -2.0037335575   -2.5613129176   -1.3307139474
H       -0.5866532897   -1.6482315903    0.2653504515
H        0.5537362557   -4.9349852361    0.0618981663
