19   

C        1.7384420170   -1.2550412989   -0.1122797328
C        0.7594317981   -0.5075774762    0.5303299170
C        2.7566132732   -1.8501373898    0.6347322463
C        0.8073010504   -0.3576060699    1.9153937650
C        2.8280617124   -1.7222434619    2.0404848157
C        1.8262642399   -0.9506732063    2.6864757229
C        3.9374114945   -2.3782579180    2.7466363214
C        1.8205881236   -0.7129792889    4.1780480238
N        4.0768571363   -2.6267519106    4.0910981849
N        5.0301618460   -2.8515689983    2.1031537344
N        5.2770297968   -3.2535563023    4.2090870281
N        5.8283601095   -3.3841371599    3.0607115025
H        1.7153432238   -1.3773120369   -1.1884326633
H       -0.0339059839   -0.0418626125   -0.0418557099
H        3.5107556050   -2.4302256121    0.1154791291
H        0.0396936027    0.2333955759    2.3998319059
H        1.6340956377   -1.6524088215    4.7071424379
H        2.7825629151   -0.3020116831    4.4992559560
H        1.0397014787   -0.0015163456    4.4605778908
19   

C        1.7129374179   -1.2940505323   -0.1207866815
C        0.7450746855   -0.5273953903    0.5192876457
C        2.7303749829   -1.8896769603    0.6275689531
C        0.8041278671   -0.3562383697    1.9025892107
C        2.8048605819   -1.7452875433    2.0284876693
C        1.8220583411   -0.9504426122    2.6730367226
C        3.9194818294   -2.3869559898    2.7407815494
C        1.8515888742   -0.6869225848    4.1595308062
N        3.9559085812   -2.8265543238    4.0413762527
N        5.1183903895   -2.6198858990    2.1598426355
N        5.2106010720   -3.3260490025    4.1994006346
N        5.8819064860   -3.2075950256    3.1139400545
H        1.6822552775   -1.4285953146   -1.1952684082
H       -0.0467380986   -0.0606990670   -0.0541978754
H        3.4837828805   -2.4827233921    0.1216209959
H        0.0492485475    0.2523801472    2.3852103250
H        1.5998734603   -1.6006483740    4.7063002345
H        2.8469646218   -0.3497437003    4.4649109888
H        1.1321412581    0.0891075125    4.4351947301
19   

C        1.7018343966   -1.3117163909   -0.1259327444
C        0.7477904172   -0.5265566309    0.5158738084
C        2.7149296499   -1.9180839895    0.6206142904
C        0.8167249488   -0.3454998027    1.8986290488
C        2.7904109276   -1.7678567995    2.0176848014
C        1.8298562457   -0.9513841609    2.6651502867
C        3.9059646115   -2.4037067755    2.7384499902
C        1.8880639850   -0.6855884969    4.1499699623
N        3.8595510025   -3.0319565798    3.9574609157
N        5.1751592333   -2.4030973753    2.2762030273
N        5.1448365708   -3.4126227351    4.1879985036
N        5.9038012554   -3.0508678417    3.2191041919
H        1.6642329606   -1.4500067221   -1.1997019929
H       -0.0398453297   -0.0514253060   -0.0564299986
H        3.4660188883   -2.5214531755    0.1234471932
H        0.0758343524    0.2788182103    2.3828577591
H        1.6063230646   -1.5875489351    4.7015675522
H        2.9012673375   -0.3930997805    4.4430190013
H        1.2053194556    0.1210848609    4.4309542435
19   

C        2.0351236183   -0.7401682526   -0.1290701852
C        0.8618364943   -0.3414555514    0.5086925562
C        3.0419896194   -1.3722510828    0.6053525377
C        0.7042672341   -0.5687559594    1.8782659865
C        2.8906584990   -1.6312339081    1.9777833104
C        1.7084956498   -1.2058518280    2.6301188222
C        4.0016554027   -2.2597225452    2.7199436545
C        1.5218274047   -1.3995209528    4.1151247191
N        3.9284516696   -3.3778794893    3.5095857920
N        5.2484913278   -1.7466455279    2.7605333720
N        5.1890850540   -3.5175140336    4.0017986354
N        5.9503453570   -2.5783840737    3.5703876580
H        2.1711255901   -0.5573962514   -1.1881220763
H        0.0778405218    0.1508059722   -0.0540453913
H        3.9642011625   -1.6737418285    0.1220344136
H       -0.2069292361   -0.2420388738    2.3641817602
H        1.4039636837   -2.4637368144    4.3403836914
H        2.3936059493   -1.0199539317    4.6574389026
H        0.6355658229   -0.8675134136    4.4718894437
19   

C        2.0221876234   -0.7555439788   -0.1439809352
C        0.8571550205   -0.3442240389    0.5031949157
C        3.0361781185   -1.3821493758    0.5861168025
C        0.7126173042   -0.5554260649    1.8775284913
C        2.8974648847   -1.6165616502    1.9627401206
C        1.7241320840   -1.1859711032    2.6243539574
C        4.0014419009   -2.2501989891    2.7188404210
C        1.5569966140   -1.3824692137    4.1109952144
N        3.9850476586   -3.5049568953    3.2674381055
N        5.1577401764   -1.6256035124    3.0155042546
N        5.1913642388   -3.6052153058    3.8890183649
N        5.8677261313   -2.5234304926    3.7438176858
H        2.1449955515   -0.5878196204   -1.2071170630
H        0.0681204939    0.1430900860   -0.0568004551
H        3.9509610454   -1.6973028113    0.0979202473
H       -0.1932803000   -0.2234065934    2.3696999328
H        1.5105355289   -2.4509611470    4.3426970249
H        2.4068701735   -0.9457202114    4.6450094643
H        0.6400934917   -0.9066700222    4.4696799926
19   

C        2.0190236691   -0.7821084879   -0.1503746890
C        0.8616005149   -0.3513084058    0.4987480487
C        3.0362864865   -1.3995793526    0.5832681894
C        0.7250747765   -0.5389364010    1.8776324090
C        2.9114550334   -1.5936233301    1.9668733952
C        1.7406401997   -1.1585090924    2.6278390218
C        4.0006464738   -2.2497473894    2.7296371082
C        1.5774294624   -1.3534899660    4.1148718687
N        4.1205631792   -3.5935134681    2.9593415274
N        5.0230584174   -1.5822189202    3.2959847654
N        5.2605922013   -3.6960030612    3.6954743796
N        5.7815365514   -2.5381362406    3.8890092252
H        2.1316803523   -0.6397118387   -1.2183143301
H        0.0699055159    0.1279792991   -0.0644091938
H        3.9412335781   -1.7389558681    0.0931157278
H       -0.1783065937   -0.1998975666    2.3696316344
H        1.6283279017   -2.4191860780    4.3592031604
H        2.3792071160   -0.8344594281    4.6494399592
H        0.6167329710   -0.9613986083    4.4599611333
19   

C        2.0163713351   -0.8108400719   -0.1449795995
C        0.8673359600   -0.3530579407    0.4994143928
C        3.0318690214   -1.4191448735    0.5983519258
C        0.7356728200   -0.5102953624    1.8821654459
C        2.9214957066   -1.5676318704    1.9894390053
C        1.7504629420   -1.1195608555    2.6421232130
C        3.9981609506   -2.2489430616    2.7439291312
C        1.5785550746   -1.2985964830    4.1302988717
N        4.3251693778   -3.5743982711    2.6467154078
N        4.8598830434   -1.6116876866    3.5592653039
N        5.3993441751   -3.7055194849    3.4719407678
N        5.7085473754   -2.5752188012    3.9973242664
H        2.1227910491   -0.6998197221   -1.2172763125
H        0.0763303548    0.1186890462   -0.0710279677
H        3.9260883143   -1.7881768870    0.1095597075
H       -0.1651281468   -0.1578919500    2.3694874917
H        1.6973147013   -2.3535358619    4.3968843454
H        2.3342941822   -0.7155602316    4.6655919177
H        0.5879851392   -0.9674688902    4.4542087563
19   

C        2.0175069758   -0.8413084308   -0.1367630368
C        0.8753797689   -0.3520774472    0.4944407428
C        3.0183261330   -1.4550978897    0.6210968670
C        0.7357359928   -0.4860024294    1.8781323243
C        2.9062723215   -1.5765858363    2.0161713816
C        1.7362815276   -1.0996010505    2.6540212287
C        3.9688229597   -2.2750414679    2.7657164490
C        1.5354310356   -1.2620492354    4.1409850618
N        4.4900016819   -3.5007435973    2.4457733757
N        4.6573535591   -1.7310448502    3.7899223344
N        5.4855352941   -3.6818648774    3.3555809783
N        5.5829152120   -2.6625651799    4.1300399230
H        2.1299119843   -0.7518101810   -1.2104690468
H        0.0948997077    0.1237923487   -0.0869727611
H        3.9051183505   -1.8501789258    0.1386842447
H       -0.1623680969   -0.1125175580    2.3546381213
H        1.7153040148   -2.3009544241    4.4348352277
H        2.2334899027   -0.6175773681    4.6837941464
H        0.5158021378   -0.9934341654    4.4308161446
19   

C        2.0025709214   -0.8660268406   -0.1323673828
C        0.8738741699   -0.3555363905    0.5031942657
C        3.0008121240   -1.4860357600    0.6228235363
C        0.7458313523   -0.4750244391    1.8884451324
C        2.9027742339   -1.5971760763    2.0219132325
C        1.7436361935   -1.0946941457    2.6641849726
C        3.9744814546   -2.2924191061    2.7533898635
C        1.5306939710   -1.2423376595    4.1517186877
N        4.6643416189   -3.3832874726    2.2900901481
N        4.5039126765   -1.8806023832    3.9255309946
N        5.5928173082   -3.6244050312    3.2548026516
N        5.5011104851   -2.7587271178    4.1976010673
H        2.1076825710   -0.7874998771   -1.2076822856
H        0.0947198208    0.1255824533   -0.0756794236
H        3.8774689836   -1.8923319925    0.1310531900
H       -0.1438375655   -0.0850983073    2.3676372304
H        1.7380363763   -2.2704814015    4.4645307585
H        2.1985291819   -0.5655265466    4.6931171477
H        0.4990738111   -1.0043585668    4.4254465909
19   

C        1.9927542062   -0.8803940192   -0.1334587821
C        0.8745741964   -0.3541664219    0.5043404975
C        2.9882869423   -1.5052166971    0.6201945983
C        0.7558317825   -0.4622172280    1.8902885238
C        2.8998683855   -1.6129742853    2.0227449082
C        1.7500598044   -1.0878931681    2.6673893615
C        3.9847233421   -2.2993167802    2.7395063757
C        1.5247641411   -1.2126901006    4.1559626353
N        4.8246099566   -3.2320817752    2.1830944964
N        4.3631397251   -2.0580804643    4.0145574999
N        5.6888220727   -3.5494277949    3.1842029028
N        5.4233101904   -2.8728043931    4.2407263246
H        2.0933520637   -0.8090222832   -1.2097183630
H        0.0969190234    0.1315023495   -0.0727597504
H        3.8569668862   -1.9160040357    0.1182234755
H       -0.1268624895   -0.0574012423    2.3700609784
H        1.6891399772   -2.2450851893    4.4797199225
H        2.2115204581   -0.5532809178    4.6951989119
H        0.5012942361   -0.9350589839    4.4227856898
19   

C        1.9751748131   -0.9092801036   -0.1273219300
C        0.8636845409   -0.3743234264    0.5117936405
C        2.9736801168   -1.5284504990    0.6260393784
C        0.7566938030   -0.4661701212    1.8989347598
C        2.8958956685   -1.6285105727    2.0320643820
C        1.7533187832   -1.0870386955    2.6784127058
C        3.9953571539   -2.2994207211    2.7397823891
C        1.5301764630   -1.1696104586    4.1709820598
N        4.9751440855   -3.0481038472    2.1329050212
N        4.2340750000   -2.2555283306    4.0704810047
N        5.7819486483   -3.4490449719    3.1512460817
N        5.3548317525   -2.9920371022    4.2697954543
H        2.0695464761   -0.8480691228   -1.2047828652
H        0.0833291782    0.1079014716   -0.0645637400
H        3.8359976061   -1.9406249266    0.1146513987
H       -0.1205828225   -0.0495327706    2.3785227068
H        1.6103581860   -2.2070789143    4.5096075463
H        2.2692226418   -0.5571748096    4.6963503656
H        0.5349256555   -0.8061580064    4.4413099716
19   

C        1.9490654120   -0.9392299163   -0.1206442028
C        0.8401433543   -0.4037151393    0.5211323233
C        2.9563331138   -1.5452181191    0.6313393186
C        0.7468496523   -0.4782176317    1.9099013696
C        2.8896277786   -1.6356760368    2.0395685775
C        1.7523652063   -1.0857150915    2.6891941157
C        4.0006950205   -2.2926900077    2.7421174567
C        1.5537867633   -1.1137793040    4.1875480617
N        5.1070252396   -2.8291813390    2.1268050420
N        4.1128394592   -2.4722962588    4.0784265762
N        5.8625817362   -3.3241668461    3.1428340507
N        5.2891787677   -3.1184640737    4.2699204858
H        2.0350260339   -0.8885766512   -1.1993624382
H        0.0529187336    0.0687630515   -0.0539591213
H        3.8146631854   -1.9578497548    0.1138339453
H       -0.1260297939   -0.0545750952    2.3913616537
H        1.5254242068   -2.1473226219    4.5457395720
H        2.3655821267   -0.5758853745    4.6865221676
H        0.6119173832   -0.6355364101    4.4700802241
19   

C        1.9397291836   -0.9759628888   -0.1335139196
C        0.8298279316   -0.4379793101    0.5058232738
C        2.9529089119   -1.5676193072    0.6223610983
C        0.7431598074   -0.4916918526    1.8963802764
C        2.8879203361   -1.6436113369    2.0305377487
C        1.7547527206   -1.0844898192    2.6784273693
C        4.0035603975   -2.2841938382    2.7410324163
C        1.5877686770   -1.0618280619    4.1804203760
N        5.2141962727   -2.6012214995    2.1730064130
N        4.0017280163   -2.6898776219    4.0314136977
N        5.9202590431   -3.1903403281    3.1745676406
N        5.2211477468   -3.2418018217    4.2474333498
H        2.0217087175   -0.9380214030   -1.2130575036
H        0.0384617748    0.0236017174   -0.0724206836
H        3.8127860634   -1.9844142335    0.1106087547
H       -0.1263947523   -0.0605667113    2.3772249541
H        1.4549221254   -2.0795937802    4.5596094135
H        2.4648990996   -0.6090687613    4.6527415245
H        0.7120150695   -0.4748980956    4.4707098833
19   

C        1.9090916653   -1.0029486676   -0.1125711562
C        0.8082648924   -0.4509582443    0.5335650770
C        2.9278875183   -1.5921168229    0.6387086662
C        0.7366044454   -0.4855531327    1.9265008283
C        2.8717613131   -1.6541421603    2.0457227526
C        1.7538471665   -1.0763453883    2.7011190506
C        3.9940132613   -2.2776808864    2.7619233294
C        1.6297404775   -1.0282859430    4.2059243038
N        5.2713319710   -2.3887778728    2.2706952390
N        3.9187161950   -2.8978611801    3.9607069138
N        5.9471557589   -3.0694217409    3.2349154001
N        5.1677585664   -3.3633120080    4.2099156287
H        1.9798372019   -0.9761960102   -1.1932317122
H        0.0136625179    0.0090274617   -0.0414898206
H        3.7852116234   -2.0187879039    0.1305042783
H       -0.1220248432   -0.0408616802    2.4145678977
H        1.4306186756   -2.0304230748    4.5974562437
H        2.5533200757   -0.6454588083    4.6510358750
H        0.8108683552   -0.3711963600    4.5116078586
19   

C        1.9022676230   -1.0184997627   -0.1187446397
C        0.8082542085   -0.4504653416    0.5285269317
C        2.9191408987   -1.6121579675    0.6327588328
C        0.7410878024   -0.4719040743    1.9230179048
C        2.8608232298   -1.6648955661    2.0374840594
C        1.7560233698   -1.0682433815    2.6948031379
C        3.9825596008   -2.2750299477    2.7698264874
C        1.6579629254   -1.0183133197    4.2007196783
N        5.3014610135   -2.1880987066    2.4044585320
N        3.8556228128   -3.0999417212    3.8315526837
N        5.9514449599   -2.9592032798    3.3175824637
N        5.1188726669   -3.4851777951    4.1402928746
H        1.9693742264   -0.9988421389   -1.1997749248
H        0.0161698673    0.0129696307   -0.0472186505
H        3.7768489776   -2.0482495512    0.1331559035
H       -0.1094295417   -0.0143701759    2.4133869903
H        1.4310304993   -2.0142339034    4.5929388470
H        2.6036227539   -0.6745668186    4.6314017960
H        0.8688372778   -0.3316779924    4.5194904718
19   

C        1.8963104569   -1.0356747956   -0.1187592660
C        0.8151779518   -0.4424168816    0.5304090557
C        2.9077494150   -1.6406419932    0.6320697876
C        0.7545543623   -0.4496902440    1.9262252832
C        2.8512657270   -1.6791376454    2.0352382057
C        1.7644236525   -1.0571433436    2.6948285437
C        3.9675159454   -2.2887608050    2.7842942818
C        1.6866159034   -1.0128058824    4.2014027153
N        5.2953449439   -2.0127009354    2.5919294982
N        3.8267416922   -3.2988994247    3.6668802680
N        5.9342250098   -2.8689925510    3.4346872374
N        5.0888838841   -3.6106657572    4.0540052909
H        1.9575472287   -1.0256275826   -1.2002574035
H        0.0280649769    0.0294997706   -0.0452563833
H        3.7592571421   -2.0941920574    0.1376632854
H       -0.0849052778    0.0256796714    2.4186397852
H        1.4991720126   -2.0166341186    4.5944254715
H        2.6291040015   -0.6429674314    4.6172955230
H        0.8807201072   -0.3523979163    4.5333579721
19   

C        1.8704606217   -1.0546425422   -0.1293046106
C        0.8092872974   -0.4414293402    0.5362563224
C        2.8870049277   -1.6701148093    0.6066597238
C        0.7716087227   -0.4409003401    1.9336251797
C        2.8533038840   -1.6931356259    2.0094025463
C        1.7874170653   -1.0575900166    2.6861989474
C        3.9635459484   -2.3212377786    2.7613959464
C        1.7382438547   -1.0266825600    4.1938129490
N        5.2507584179   -1.8596218907    2.8180610260
N        3.8569347220   -3.4949659592    3.4128803299
N        5.8984915843   -2.7939876885    3.5660208888
N        5.0965192636   -3.7367921490    3.9083289048
H        1.9111252703   -1.0527084855   -1.2118078960
H        0.0186042730    0.0379109734   -0.0282727230
H        3.7225636947   -2.1421928122    0.1029588582
H       -0.0537101248    0.0458543586    2.4386319440
H        1.6372742826   -2.0439778306    4.5843598369
H        2.6605354614   -0.5900798762    4.5898237309
H        0.8918993999   -0.4312883475    4.5473644875
19   

C        1.8482179048   -1.0720759431   -0.1390923928
C        0.8045629019   -0.4377976294    0.5354729102
C        2.8740286527   -1.6827018888    0.5883561853
C        0.7898098382   -0.4160937708    1.9334916374
C        2.8707783298   -1.6678791825    1.9909939390
C        1.8153108104   -1.0264682970    2.6776962954
C        3.9666648118   -2.3211818288    2.7465600194
C        1.7844162521   -0.9938501555    4.1856395727
N        5.1318352013   -1.7238200129    3.1445449362
N        3.9413501959   -3.6094885617    3.1355332295
N        5.7986986695   -2.7156630201    3.7953892741
N        5.1141466682   -3.8023299675    3.7898293626
H        1.8659194660   -1.0930275564   -1.2220100365
H        0.0067260267    0.0370230788   -0.0227802207
H        3.6909462176   -2.1796559351    0.0784171489
H       -0.0260809345    0.0795017852    2.4451711827
H        1.7628744879   -2.0144282624    4.5805587082
H        2.6792123155   -0.4914279896    4.5663059084
H        0.9023004426   -0.4598446042    4.5496036664
19   

C        1.8273474885   -1.0902459123   -0.1360750777
C        0.7957997708   -0.4386858951    0.5397304774
C        2.8592003835   -1.6925847813    0.5894060667
C        0.7965116781   -0.3966445263    1.9370608195
C        2.8822410815   -1.6431000673    1.9916497692
C        1.8291141332   -0.9971011061    2.6798095479
C        3.9681802901   -2.3195676378    2.7367815640
C        1.7974202424   -0.9600216628    4.1878764762
N        4.9622058041   -1.7022724459    3.4484600287
N        4.0708075598   -3.6576991052    2.8548130915
N        5.6715667131   -2.7342688817    3.9808247350
N        5.1592158234   -3.8609274039    3.6388321858
H        1.8292913884   -1.1342043002   -1.2184500224
H       -0.0074482695    0.0290428546   -0.0167474390
H        3.6613444321   -2.2111800902    0.0774407023
H       -0.0149401872    0.1049329806    2.4499798499
H        1.8703196810   -1.9756076713    4.5897199150
H        2.6416416533   -0.3740588156    4.5639837476
H        0.8695630514   -0.5090888073    4.5504949921
19   

C        1.8159269620   -1.1052481158   -0.1279673296
C        0.7917548132   -0.4378133657    0.5412708560
C        2.8469706075   -1.7016494141    0.6027870990
C        0.7987715476   -0.3770216114    1.9371161696
C        2.8835714748   -1.6292174262    2.0052937515
C        1.8315385312   -0.9706701225    2.6858215172
C        3.9687841710   -2.3149232206    2.7343806191
C        1.7861101331   -0.9205071636    4.1934921327
N        4.8011307125   -1.7586530045    3.6708810970
N        4.2317044670   -3.6320631096    2.6076443522
N        5.5817075887   -2.7962893693    4.0770244042
N        5.2546201052   -3.8758808365    3.4646251367
H        1.8125782821   -1.1677810178   -1.2094331910
H       -0.0118146104    0.0252289782   -0.0186545851
H        3.6408062499   -2.2352567139    0.0928353639
H       -0.0100887796    0.1333517012    2.4454581138
H        1.9299208016   -1.9228632759    4.6091803592
H        2.5799935284   -0.2675577275    4.5684927631
H        0.8239603478   -0.5372147314    4.5444002999
19   

C        1.8115600328   -1.1220722384   -0.1177542688
C        0.7970169900   -0.4336636578    0.5421012197
C        2.8336650900   -1.7232023186    0.6206990265
C        0.8056140928   -0.3571096849    1.9362439579
C        2.8746337864   -1.6393703907    2.0247449221
C        1.8294205531   -0.9554532675    2.6944537541
C        3.9599924878   -2.3277345958    2.7434725150
C        1.7671404931   -0.8845850014    4.2010434900
N        4.6510348434   -1.8762608084    3.8395696675
N        4.3910727088   -3.5643991358    2.4127319845
N        5.5133503578   -2.8866434901    4.1321142524
N        5.3644302624   -3.8599793182    3.3098409615
H        1.8087924675   -1.1969838511   -1.1984480436
H       -0.0001398092    0.0335443601   -0.0235027939
H        3.6197032377   -2.2692882862    0.1114845353
H        0.0028135609    0.1701043607    2.4369687151
H        1.9144263470   -1.8792314468    4.6334712376
H        2.5484327082   -0.2163690478    4.5755286846
H        0.7970363723   -0.5071048880    4.5360393274
19   

C        1.8008122419   -1.1430730340   -0.1135878115
C        0.7982318314   -0.4343595128    0.5396753203
C        2.8149769631   -1.7510607668    0.6292617912
C        0.8127669454   -0.3431516456    1.9317024857
C        2.8618877488   -1.6617753798    2.0359765664
C        1.8281938520   -0.9488275322    2.6964931493
C        3.9514987207   -2.3480409588    2.7456013570
C        1.7580302047   -0.8482806563    4.2014574240
N        4.5098277968   -2.0275471367    3.9587107041
N        4.5575342931   -3.4537549456    2.2563246309
N        5.4619607624   -2.9772192556    4.1594642997
N        5.4904297494   -3.8003373593    3.1773273591
H        1.7967794771   -1.2272938743   -1.1936086480
H        0.0070289204    0.0389943078   -0.0291777015
H        3.5911288351   -2.3052202470    0.1136990421
H        0.0192398393    0.2032783256    2.4265878405
H        1.8565561604   -1.8405711093    4.6524323607
H        2.5627100701   -0.2056495740    4.5712148007
H        0.8027892359   -0.4238260321    4.5226549138
19   

C        1.7851215021   -1.1874483726   -0.1204028265
C        0.7952334364   -0.4554599091    0.5233214845
C        2.7929168391   -1.7972298344    0.6288528597
C        0.8181686176   -0.3410828254    1.9123846244
C        2.8473026993   -1.6936119805    2.0374209285
C        1.8268858853   -0.9486340175    2.6856255524
C        3.9413727971   -2.3720542649    2.7462663155
C        1.7602337920   -0.7999966781    4.1871971046
N        4.3618243519   -2.2061839700    4.0441019288
N        4.7209919248   -3.3071917447    2.1543707971
N        5.4021291975   -3.0688869729    4.1883441865
N        5.6104839961   -3.7051975508    3.0967460962
H        1.7779144835   -1.2872296762   -1.1990965043
H        0.0091450753    0.0204403172   -0.0504863446
H        3.5567953156   -2.3632137499    0.1082722297
H        0.0355280227    0.2281291753    2.3988588576
H        1.7762109405   -1.7839583091    4.6657651985
H        2.6102795614   -0.2106964922    4.5441242581
H        0.8410158570   -0.2923604179    4.4923727987
19   

C        1.7690019851   -1.2234258684   -0.1251564314
C        0.7811884791   -0.4865483997    0.5147002896
C        2.7815466918   -1.8227623359    0.6257991676
C        0.8131257409   -0.3543156372    1.9014723635
C        2.8426805552   -1.7077621576    2.0346118930
C        1.8264778898   -0.9514359991    2.6772974018
C        3.9456562309   -2.3727523235    2.7424947441
C        1.7803580029   -0.7543787670    4.1742560540
N        4.2170642681   -2.4062429119    4.0896771013
N        4.8977458642   -3.0862967864    2.0958680308
N        5.3456891133   -3.1542511502    4.2048852130
N        5.7398683517   -3.5478280101    3.0524418080
H        1.7571036840   -1.3348707213   -1.2026727955
H       -0.0083634142   -0.0180440949   -0.0604439615
H        3.5406506590   -2.3925026704    0.1026114536
H        0.0347202619    0.2239464140    2.3840471042
H        1.6934641152   -1.7212423583    4.6791663087
H        2.6876076806   -0.2468292345    4.5157220268
H        0.9217192295   -0.1431235621    4.4655775707
