28   
Generated by ForceBalance from scan.xyz: Frame 1 of 24
C        6.7041604843   -0.2126037338    7.9050285286
C        5.5288460586    0.0798774795    8.6051934866
C        6.6257662931   -0.8706622525    6.6797194232
C        4.2821392314   -0.2814472907    8.0856772953
C        5.3873933264   -1.2447551642    6.1301201651
C        4.2064235808   -0.9420605385    6.8519440043
C        9.1355536734   -4.1130193000    1.9975186067
C        7.0712620682   -3.4047117632    2.3917402685
C        5.3013390706   -1.9329883503    4.8415836635
C        8.5589142750   -4.6989974395    0.7346637741
C        1.8124390462   -1.0437200599    6.9565111946
N        8.3998221260   -3.4689793997    2.8266702309
N        6.0672443382   -2.8473904633    2.9648984019
N        6.3663945629   -2.1999420387    4.1611501654
O       10.4495579347   -4.3074675530    2.1909422513
O        3.0284345941   -1.3288922751    6.2724291216
S        6.7933737150   -4.2405646574    0.8182253310
H        7.6699931352    0.0697783058    8.3144379565
H        5.5756772653    0.5917809516    9.5630440634
H        7.5204619658   -1.1132070167    6.1148438517
H        3.3847385436   -0.0449714512    8.6454348997
H        4.3155494722   -2.2167661313    4.4694047851
H        9.0510963839   -4.2696637090   -0.1427064848
H        8.6992217570   -5.7835454682    0.7176071664
H        1.0164747999   -1.4332459372    6.3205992202
H        1.6741928515    0.0358371629    7.0917908072
H        1.7760521901   -1.5437641197    7.9319856675
H       10.6803105133   -3.8767986401    3.0369544020
28   
Generated by ForceBalance from scan.xyz: Frame 2 of 24
C        6.7127207848   -0.0871038360    7.8535778183
C        5.5400386178    0.0857298755    8.5964346388
C        6.6463455157   -0.6955613456    6.6020084790
C        4.3085225679   -0.3450623567    8.0938551226
C        5.4231478001   -1.1350103050    6.0680503912
C        4.2449685689   -0.9544551074    6.8333660604
C        9.0493943972   -4.2449238640    2.1163119745
C        7.0934235353   -3.2155946986    2.3127136368
C        5.3490300947   -1.7684859909    4.7497149062
C        8.5288943654   -4.7083185590    0.7801944119
C        1.8685387405   -1.2387748291    6.9943596588
N        8.3391553855   -3.5034056868    2.8839099153
N        6.1379744694   -2.5145476766    2.8003526712
N        6.4074251112   -1.9151484813    4.0261177578
O       10.2863682888   -4.6530835453    2.4405902113
O        3.0819027652   -1.4026985757    6.2672276715
S        6.8604026394   -3.9713886214    0.6908104157
H        7.6669882354    0.2480012353    8.2501538097
H        5.5772098465    0.5570270193    9.5753039462
H        7.5397601990   -0.8470225612    6.0042903466
H        3.4130578211   -0.2012664287    8.6871962203
H        4.3763035004   -2.1156152918    4.3972255238
H        9.1773391933   -4.3489870185   -0.0240492584
H        8.4960303200   -5.8007803662    0.7400251996
H        1.0850824763   -1.6578813991    6.3616911795
H        1.6558128356   -0.1794598383    7.1825917172
H        1.8966612436   -1.7825305125    7.9464756239
H       10.4894817516   -4.2785792937    3.3197453366
28   
Generated by ForceBalance from scan.xyz: Frame 3 of 24
C        6.7167822236    0.0497386427    7.8029182489
C        5.5526237381    0.0989053192    8.5767503445
C        6.6691729520   -0.5153781594    6.5301158464
C        4.3482016299   -0.4117670226    8.0834186568
C        5.4729994591   -1.0321675492    6.0056284130
C        4.3032056620   -0.9770151611    6.8016827782
C        8.9024945498   -4.3618029922    2.2356221471
C        7.1198193497   -3.0386306601    2.2503552286
C        5.4182113090   -1.6210580725    4.6640677410
C        8.4688892550   -4.7185085659    0.8370673713
C        1.9602371822   -1.4539331807    6.9988378244
N        8.2343947705   -3.5285632376    2.9445543403
N        6.2425904551   -2.2031480840    2.6605845210
N        6.4652033337   -1.6498879424    3.9132755886
O       10.0175950200   -4.9640178802    2.6781286436
O        3.1661225865   -1.4969052688    6.2427793078
S        6.9563567331   -3.7255052319    0.5880988216
H        7.6504871154    0.4462373954    8.1917253663
H        5.5753908218    0.5348044111    9.5723215787
H        7.5575988827   -0.5715326710    5.9088514120
H        3.4585729276   -0.3634186178    8.7005126526
H        4.4679957825   -2.0360700561    4.3234945621
H        9.2521265933   -4.4555350294    0.1202573201
H        8.2711554902   -5.7913807009    0.7595712941
H        1.1974685372   -1.9099166406    6.3663442805
H        1.6707519839   -0.4217383948    7.2303927518
H        2.0510352663   -2.0273183734    7.9294360133
H       10.1780429417   -4.6383448122    3.5850899935
28   
Generated by ForceBalance from scan.xyz: Frame 4 of 24
C        6.6884181670    0.2244675963    7.7839391888
C        5.5356023577    0.1255455287    8.5695371275
C        6.6792530436   -0.2920187073    6.4896142952
C        4.3818352628   -0.4836366306    8.0668916071
C        5.5347205848   -0.9056480437    5.9555461492
C        4.3763043630   -0.9994145462    6.7636781327
C        8.6844624125   -4.4443843228    2.3415686902
C        7.1687912467   -2.8257553897    2.2096079117
C        5.5207647373   -1.4442440980    4.5905696437
C        8.3709029257   -4.6825293084    0.8867643043
C        2.0959079307   -1.7174023866    6.9640686148
N        8.0883202593   -3.5244449864    3.0057372083
N        6.4104901785   -1.8600174985    2.5599619272
N        6.5656842509   -1.3688717192    3.8430025500
O        9.6155064066   -5.2464369093    2.8820276009
O        3.2895260279   -1.6101548355    6.1951546743
S        7.0993358288   -3.4273276081    0.5066596667
H        7.5828350216    0.6979633383    8.1789710946
H        5.5275664292    0.5222551267    9.5815604482
H        7.5603764057   -0.2324330543    5.8583614332
H        3.5002231422   -0.5493811525    8.6938070698
H        4.6009437090   -1.9115370599    4.2343360853
H        9.2708369956   -4.5484923780    0.2797059968
H        7.9984136902   -5.7000714001    0.7380480250
H        1.3735011131   -2.2223849591    6.3214417017
H        1.7082252457   -0.7292470019    7.2399251611
H        2.2561393078   -2.3147131162    7.8699653505
H        9.7179366690   -4.9780234915    3.8157346518
28   
Generated by ForceBalance from scan.xyz: Frame 5 of 24
C        6.6623924696    0.3513192821    7.7749457992
C        5.5211367011    0.1413063089    8.5554888064
C        6.6973164053   -0.1351351526    6.4693022594
C        4.4216784596   -0.5491568767    8.0364296548
C        5.6078600906   -0.8291229058    5.9197781603
C        4.4605129975   -1.0349159992    6.7223778787
C        8.4670684098   -4.5030074928    2.4516933979
C        7.2084268051   -2.6895128126    2.2032491727
C        5.6395371338   -1.3411139884    4.5439875153
C        8.2600699041   -4.6942543731    0.9709870149
C        2.2455709340   -1.9401150257    6.8992978209
N        7.9452644171   -3.5099867171    3.0712108285
N        6.5722627677   -1.6245219593    2.5003071743
N        6.6664363185   -1.1539955830    3.7934036735
O        9.2248551233   -5.4268100701    3.0638773614
O        3.4279752149   -1.7200782548    6.1371611561
S        7.2153836517   -3.2741638343    0.4917302288
H        7.5145138364    0.8879801995    8.1824326001
H        5.4797316489    0.5141430761    9.5757390355
H        7.5708969472    0.0120685482    5.8418726695
H        3.5473876828   -0.7003400415    8.6588378365
H        4.7643968427   -1.8845644955    4.1829183746
H        9.2224778644   -4.6867764618    0.4512501886
H        7.7657167565   -5.6500499176    0.7751284629
H        1.5680096446   -2.4889575659    6.2438835891
H        1.7780251631   -0.9927107626    7.1937068155
H        2.4520443428   -2.5408094717    7.7935276961
H        9.2776884407   -5.1758038450    4.0064731465
28   
Generated by ForceBalance from scan.xyz: Frame 6 of 24
C        6.6047206487    0.5042302098    7.7685714071
C        5.4821169354    0.1714765260    8.5331994267
C        6.6998500730    0.0432262519    6.4566819594
C        4.4611380137   -0.6159482694    7.9922833387
C        5.6903370569   -0.7477380391    5.8860794651
C        4.5607184093   -1.0766168455    6.6723873848
C        8.2088991814   -4.5535641268    2.5561633889
C        7.2727311400   -2.5658479207    2.2217868092
C        5.7867306586   -1.2346442057    4.5041500918
C        8.1206020301   -4.7051894295    1.0591488662
C        2.4404854872   -2.1910290575    6.8099228155
N        7.7870019330   -3.4942938991    3.1407669911
N        6.7917593653   -1.4117778825    2.4752343765
N        6.8089952952   -0.9591351911    3.7751534647
O        8.7530837734   -5.5854235785    3.2211650856
O        3.6068373849   -1.8527179727    6.0666605290
S        7.3603667353   -3.1378635980    0.5078188501
H        7.3951582762    1.1172342759    8.1923276332
H        5.3937536476    0.5239397352    9.5576920466
H        7.5594975486    0.2874662452    5.8403917570
H        3.5998825174   -0.8612953486    8.6027475088
H        4.9599191556   -1.8334968988    4.1173810573
H        9.1183938921   -4.8469926304    0.6341051472
H        7.5049571220   -5.5711229775    0.7993778772
H        1.8251131741   -2.7921764897    6.1392008848
H        1.8832360072   -1.2949153175    7.1087097337
H        2.6905701770   -2.7811759000    7.7000509498
H        8.7523835823   -5.3484253301    4.1688091029
28   
Generated by ForceBalance from scan.xyz: Frame 7 of 24
C        6.5481217871    0.6303144407    7.7627186778
C        5.4475151891    0.1948736425    8.5075683947
C        6.7037946642    0.1902680669    6.4494710020
C        4.5076506823   -0.6741986024    7.9450173602
C        5.7763328650   -0.6819058167    5.8580045086
C        4.6674689468   -1.1137510742    6.6239456173
C        7.9588931432   -4.5511973826    2.6411227351
C        7.3269123506   -2.4563179445    2.2470314149
C        5.9379496646   -1.1515073980    4.4770061745
C        7.9694722434   -4.6957764026    1.1409769080
C        2.6475519234   -2.4051052263    6.7179281511
N        7.6385271595   -3.4422754825    3.1970039168
N        6.9988815027   -1.2414652073    2.4659747791
N        6.9423508679   -0.7846040491    3.7622718466
O        8.3058823551   -5.6438058248    3.3407902561
O        3.7945946974   -1.9655596445    5.9978967825
S        7.4765346814   -3.0413430944    0.5421393123
H        7.2750436434    1.3069479823    8.2029760133
H        5.3129493463    0.5303205145    9.5327491935
H        7.5474999153    0.5144448340    5.8482452729
H        3.6617340322   -0.9984587890    8.5399221760
H        5.1696373719   -1.8142874827    4.0740982417
H        8.9688550654   -4.9751025561    0.7952105342
H        7.2633298449   -5.4698890150    0.8270554006
H        2.0963600701   -3.0507133850    6.0328333761
H        2.0122610652   -1.5607094997    7.0114873191
H        2.9300995266   -2.9785742354    7.6092621580
H        8.2632949627   -5.4042905301    4.2868053872
28   
Generated by ForceBalance from scan.xyz: Frame 8 of 24
C        6.4790745128    0.7400843616    7.7533929015
C        5.3960083703    0.2318992840    8.4777712157
C        6.6965866914    0.3016727744    6.4486016648
C        4.5347911811   -0.7080601995    7.9033630921
C        5.8484991879   -0.6406713765    5.8449065047
C        4.7565919053   -1.1456334751    6.5907385329
C        7.7432035614   -4.5380260401    2.6867451481
C        7.3865811690   -2.3803020335    2.2821647089
C        6.0762030667   -1.1093148246    4.4741576624
C        7.8496016723   -4.6712162979    1.1895172665
C        2.8308710920   -2.5751236897    6.6515066584
N        7.5103282633   -3.4040141545    3.2351997328
N        7.2066725569   -1.1305725050    2.4899798036
N        7.0583316070   -0.6590708238    3.7731648228
O        7.9128101398   -5.6679667025    3.3929352466
O        3.9622608791   -2.0640397329    5.9542926189
S        7.6004700779   -2.9652505057    0.5846368504
H        7.1444309380    1.4716598323    8.2029990060
H        5.2138299909    0.5653960911    9.4962053782
H        7.5274595590    0.6816921086    5.8624965440
H        3.7011512046   -1.0878307041    8.4825609502
H        5.3676802396   -1.8302378511    4.0626174080
H        8.8325119076   -5.0646204605    0.9147243077
H        7.0831594700   -5.3531576700    0.8099682118
H        2.3427372135   -3.2641254842    5.9608324634
H        2.1316075447   -1.7740882449    6.9200100574
H        3.1300851036   -3.1187758820    7.5560175959
H        7.8292628654   -5.4318909789    4.3370543523
28   
Generated by ForceBalance from scan.xyz: Frame 9 of 24
C        6.3989188185    0.8511918727    7.7390028644
C        5.3298944088    0.2957759010    8.4496655510
C        6.6761589828    0.3951027838    6.4520164122
C        4.5415247044   -0.7086153538    7.8796981961
C        5.9011994120   -0.6110674371    5.8518665634
C        4.8229563421   -1.1634578181    6.5846048846
C        7.5641925921   -4.5395850802    2.6917096432
C        7.4565020087   -2.3457934594    2.3293753832
C        6.1934086177   -1.0994622315    4.5014975180
C        7.7787861214   -4.6473541723    1.2045052842
C        2.9842875689   -2.7034590237    6.6364846304
N        7.4002073445   -3.4004448238    3.2548530596
N        7.4087498329   -1.0842164622    2.5516690675
N        7.1497508867   -0.5840451353    3.8056182799
O        7.5671466169   -5.6961643487    3.3745769693
O        4.1017498672   -2.1442917321    5.9538474963
S        7.7562065251   -2.9107027712    0.6385103235
H        7.0074233826    1.6322786199    8.1858445958
H        5.1020795933    0.6421730274    9.4545074741
H        7.4974564137    0.8095211313    5.8759567960
H        3.7179439593   -1.1241243669    8.4486614641
H        5.5422384648   -1.8753847615    4.0982017354
H        8.7354389220   -5.1357051245    0.9975855464
H        6.9807730922   -5.2353396231    0.7417986623
H        2.5547284831   -3.4367027248    5.9524157603
H        2.2330143893   -1.9385211816    6.8669274077
H        3.2909655639   -3.2061204618    7.5619954968
H        7.4327223342   -5.4745143447    4.3162981307
28   
Generated by ForceBalance from scan.xyz: Frame 10 of 24
C        6.2888999621    0.9900437317    7.7057085716
C        5.2298695733    0.4101739776    8.4120125490
C        6.6392018167    0.4809535022    6.4572276203
C        4.5244594605   -0.6712616807    7.8752503206
C        5.9480887223   -0.6033826811    5.8905085496
C        4.8789969749   -1.1799698339    6.6188222685
C        7.4011019447   -4.5873780820    2.6107298669
C        7.5640118200   -2.3759502354    2.3900725830
C        6.3159748112   -1.1466207448    4.5805061947
C        7.7681464039   -4.6348545089    1.1510666359
C        3.1307857816   -2.8208614391    6.6985669828
N        7.2956337671   -3.4695823492    3.2295993732
N        7.6377460572   -1.1273185163    2.6751761535
N        7.2576611791   -0.5955587039    3.8874813267
O        7.2085969937   -5.7722713575    3.2119329049
O        4.2402442248   -2.2374524222    6.0233201601
S        7.9929358775   -2.8784882429    0.7064143690
H        6.8329650501    1.8308997087    8.1264426678
H        4.9454294850    0.7971394214    9.3871941171
H        7.4540812197    0.9119181826    5.8843652650
H        3.7073253296   -1.1043682421    8.4403177399
H        5.7244325554   -1.9807361604    4.2076678241
H        8.6844919089   -5.2165125902    1.0147102010
H        6.9696257088   -5.1022199734    0.5673834259
H        2.7685927324   -3.6151070561    6.0441334959
H        2.3297185068   -2.0889905872    6.8576415420
H        3.4295643335   -3.2519196357    7.6619739394
H        6.9951707919   -5.5892862795    4.1473780323
28   
Generated by ForceBalance from scan.xyz: Frame 11 of 24
C        6.1405061898    1.1660044454    7.6310292295
C        5.0919871666    0.5765602441    8.3452921507
C        6.5803645734    0.5762030179    6.4483996091
C        4.4851744237   -0.5947292348    7.8817177261
C        5.9898926946   -0.6004487862    5.9561805425
C        4.9293829969   -1.1850158170    6.6911494241
C        7.2018120026   -4.6113891973    2.4301640380
C        7.7087605735   -2.4385167583    2.4721846553
C        6.4517913268   -1.2300334918    4.7156028444
C        7.8339257350   -4.6060726195    1.0643912322
C        3.2963579940   -2.9341851382    6.8565924274
N        7.1355025843   -3.5392931850    3.1319049168
N        7.8867375044   -1.2291838717    2.8587123481
N        7.3898799526   -0.6651330755    4.0252950622
O        6.7303566614   -5.7906212420    2.8613035585
O        4.3884497265   -2.3326787124    6.1692361299
S        8.3771529877   -2.8782677296    0.8471763242
H        6.6076537286    2.0765297230    7.9954394509
H        4.7389556424    1.0260958040    9.2699300391
H        7.3900052353    1.0101481343    5.8705236722
H        3.6746181851   -1.0333273623    8.4519383557
H        5.9456593131   -2.1409240180    4.4092392599
H        8.6708699245   -5.3099855477    1.0373253104
H        7.1051608875   -4.9037268925    0.3046373456
H        3.0151388420   -3.8060084050    6.2638317099
H        2.4407832181   -2.2514438251    6.9235363448
H        3.5861301174   -3.2581825461    7.8636707583
H        6.3662833510   -5.6467270776    3.7562489498
28   
Generated by ForceBalance from scan.xyz: Frame 12 of 24
C        5.9184753795   -1.4966876289    9.1708211138
C        4.9164734541   -0.5406776672    8.9731036476
C        6.4615764392   -2.1573113649    8.0715358867
C        4.4594101027   -0.2460024438    7.6850352190
C        6.0232428738   -1.8835111792    6.7644151599
C        5.0080307484   -0.9127347874    6.5814117195
C        6.9780885085   -3.4091919291    1.5296900912
C        7.8412100046   -4.0479112987    3.4881528106
C        6.5906061646   -2.5749873896    5.6020424510
C        7.9213799232   -4.4136468598    0.9258286796
C        3.5881874305    0.2797010649    5.0607796515
N        6.9334694998   -3.2237720814    2.7988816914
N        8.1027766182   -4.1690062160    4.7364279755
N        7.5113378854   -3.4666320975    5.7885285269
O        6.2018162507   -2.7336608326    0.6709385705
O        4.6146363120   -0.6803361455    5.2875885386
S        8.7905830231   -5.1121405975    2.3682361365
H        6.2702651792   -1.7217932381   10.1736506720
H        4.4837798783   -0.0171876637    9.8218984279
H        7.2399219067   -2.9039103928    8.1915998825
H        3.6826524731    0.4986411799    7.5560710693
H        6.2024642597   -2.2994509583    4.6268574273
H        7.3593678979   -5.1737620473    0.3751070000
H        8.6061123865   -3.9175819570    0.2316556139
H        3.4299336143    0.2981062748    3.9813028478
H        3.8914444127    1.2780744130    5.3986828890
H        2.6539823500   -0.0075458047    5.5582956106
H        5.6481183739   -2.1250446068    1.1973761535
28   
Generated by ForceBalance from scan.xyz: Frame 13 of 24
C        6.0955135081   -1.3062808383    9.1067946074
C        5.0746425384   -0.3702561244    8.9101316481
C        6.5319736334   -2.0783017251    8.0328092480
C        4.4921763721   -0.2058206266    7.6496759717
C        5.9660276745   -1.9375461148    6.7540064917
C        4.9333941268   -0.9851149454    6.5720744389
C        7.2284651823   -3.1714855890    1.5705997120
C        7.6771492328   -4.1792725144    3.5098662182
C        6.4251849634   -2.7425328607    5.6182424904
C        7.8373925799   -4.3929528323    0.9363131471
C        3.3506034520    0.0340679813    5.0857050048
N        7.1448860938   -3.0606253623    2.8460738709
N        7.8289373951   -4.4164494394    4.7606160265
N        7.3364100882   -3.6432925736    5.8024998104
O        6.7961500421   -2.2196729429    0.7304442119
O        4.4153206255   -0.8851146373    5.3057240641
S        8.3303911719   -5.4187556945    2.3618886531
H        6.5437057151   -1.4303056605   10.0885496757
H        4.7242517503    0.2393322841    9.7391529678
H        7.3204202854   -2.8142466843    8.1531391130
H        3.7028263990    0.5256625980    7.5215732851
H        5.9386520571   -2.5666984775    4.6631948054
H        7.1043376521   -4.9002835219    0.3021382437
H        8.6923188124   -4.1056642689    0.3172242651
H        3.0834192753   -0.0661452200    4.0325703411
H        3.6647326402    1.0661673407    5.2838118235
H        2.4783096833   -0.2084290617    5.7045118884
H        6.4433214943   -1.4905567112    1.2764241533
28   
Generated by ForceBalance from scan.xyz: Frame 14 of 24
C        6.2502661781   -1.1613340826    8.9897208426
C        5.2187522049   -0.2362979673    8.7973891918
C        6.5944331515   -2.0283079661    7.9551096070
C        4.5339063971   -0.1764090006    7.5797545817
C        5.9230579517   -1.9932694477    6.7211504844
C        4.8816484850   -1.0503798847    6.5413425535
C        7.4291096217   -3.0280034312    1.6813534577
C        7.5289846894   -4.2758143121    3.5249679508
C        6.2841416343   -2.8983374658    5.6271332514
C        7.7734213091   -4.2997186237    0.9521418048
C        3.1800701999   -0.1555970619    5.1059823901
N        7.3037744990   -3.0110075360    2.9571288876
N        7.5737601017   -4.6195884986    4.7601269399
N        7.1992755937   -3.7950581507    5.7978174671
O        7.2783243715   -1.9316274605    0.9212892987
O        4.2624362836   -1.0561265882    5.3175800790
S        7.9436810243   -5.5303503818    2.2899094048
H        6.7779930797   -1.2042907506    9.9382505434
H        4.9398050267    0.4460235127    9.5962937572
H        7.3880202553   -2.7588720949    8.0754088220
H        3.7380236018    0.5483622381    7.4539035379
H        5.7092812919   -2.8146676975    4.7066872544
H        6.9783148693   -4.5698791458    0.2510206134
H        8.7027088641   -4.1685750108    0.3901510841
H        2.8294185434   -0.3455958412    4.0904824030
H        3.5056169375    0.8886476822    5.1884567475
H        2.3619278333   -0.3408881345    5.8123510329
H        7.0753458752   -1.1895995323    1.5231915754
28   
Generated by ForceBalance from scan.xyz: Frame 15 of 24
C        6.3644048785   -1.0692259044    8.8860892690
C        5.3222189716   -0.1518472290    8.7170400039
C        6.6330676445   -1.9927114994    7.8780461743
C        4.5523012882   -0.1557835280    7.5497888387
C        5.8757227251   -2.0221628982    6.6953519468
C        4.8244192149   -1.0868313004    6.5386317967
C        7.5921300473   -2.9844784060    1.7641819615
C        7.4199080115   -4.3409104863    3.5209336430
C        6.1595607105   -2.9866679711    5.6293025543
C        7.7852823141   -4.2478427991    0.9666641098
C        3.0291641175   -0.2616852392    5.1774728058
N        7.4069318824   -3.0248079060    3.0313612498
N        7.3420888030   -4.7424425219    4.7358407637
N        7.0903042855   -3.8693673652    5.7673645849
O        7.6371488122   -1.8351136721    1.0706930477
O        4.1201193683   -1.1574211680    5.3642127491
S        7.7070451615   -5.5689518172    2.2257800900
H        6.9585929081   -1.0628665780    9.7954541250
H        5.1011087493    0.5742336540    9.4951884058
H        7.4334757023   -2.7184000717    7.9822486294
H        3.7495708260    0.5642426334    7.4412983090
H        5.5230951640   -2.9558811147    4.7446151269
H        6.9958570815   -4.3545657242    0.2169543466
H        8.7511618025   -4.2241620648    0.4538272912
H        2.6091374251   -0.5046448729    4.2004013508
H        3.3638866467    0.7829408352    5.1793675769
H        2.2609554853   -0.4014097534    5.9475216510
H        7.5121960464   -1.1079300319    1.7107150234
28   
Generated by ForceBalance from scan.xyz: Frame 16 of 24
C        6.4475066071   -1.0059330755    8.7956008911
C        5.3902674348   -0.0983587375    8.6748065992
C        6.6560878495   -1.9521003767    7.7939930438
C        4.5454266863   -0.1344957745    7.5612072295
C        5.8237773667   -2.0129760151    6.6647094816
C        4.7578681902   -1.0879474035    6.5565079143
C        7.7712561549   -2.9941786491    1.7658087522
C        7.3502604812   -4.3640319281    3.4667531679
C        6.0418987232   -3.0029235424    5.6050986439
C        7.8570206121   -4.2513585452    0.9394478434
C        2.8726712489   -0.3049638690    5.2959427353
N        7.5168441308   -3.0432011354    3.0203606019
N        7.1401759845   -4.7692376163    4.6621835164
N        7.0000530053   -3.8598805816    5.6840859684
O        7.9825708029   -1.8414037610    1.1095325968
O        3.9786250481   -1.1911792897    5.4332597746
S        7.5523727624   -5.5860452292    2.1494355284
H        7.0999359896   -0.9751119231    9.6636019759
H        5.2155890123    0.6444925636    9.4489336528
H        7.4668788257   -2.6705066057    7.8634131867
H        3.7317719999    0.5777894271    7.4887086681
H        5.3465168638   -3.0038444321    4.7639404064
H        7.1031659907   -4.2412260016    0.1468982705
H        8.8455907288   -4.3330800055    0.4785350680
H        2.3925134331   -0.5730037249    4.3537996770
H        3.2007762345    0.7407976287    5.2517279913
H        2.1562919954   -0.4297607657    6.1168851203
H        7.9079458708   -1.1203484244    1.7641946724
28   
Generated by ForceBalance from scan.xyz: Frame 17 of 24
C        6.5199909653   -0.9473595000    8.7035435721
C        5.4434995877   -0.0558710739    8.6566181930
C        6.6663512268   -1.8985097065    7.6954025849
C        4.5178268354   -0.1129680127    7.6102168780
C        5.7526492256   -1.9798578271    6.6327499955
C        4.6681271372   -1.0713222126    6.5988266065
C        7.9872603589   -3.0341494464    1.7366776589
C        7.2924107775   -4.3577531054    3.3820778786
C        5.9041717781   -2.9765365917    5.5662728269
C        7.9769940182   -4.2855419612    0.8967719886
C        2.6851189025   -0.3220852427    5.4750237993
N        7.6462613037   -3.0625462061    2.9712684494
N        6.9352610973   -4.7321712493    4.5498374877
N        6.8868732477   -3.8063554975    5.5661701824
O        8.3750875675   -1.9094929709    1.1134312078
O        3.8083239883   -1.1948846029    5.5382169048
S        7.4296890758   -5.5841957450    2.0598211762
H        7.2356067487   -0.9003190302    9.5194789531
H        5.3167803867    0.6906736975    9.4365102649
H        7.4912814738   -2.6040221515    7.7083958964
H        3.6905953723    0.5870831457    7.5941215838
H        5.1474584367   -2.9961100975    4.7795570652
H        7.2869601538   -4.1749288073    0.0553111623
H        8.9777230295   -4.4844830275    0.5026796735
H        2.1404362808   -0.6040204134    4.5729088270
H        2.9971363093    0.7266704761    5.3980020817
H        2.0323041997   -0.4471837967    6.3473528482
H        8.3416739717   -1.1897586135    1.7729742480
28   
Generated by ForceBalance from scan.xyz: Frame 18 of 24
C        6.5791839478   -0.8842507241    8.5978639247
C        5.4780670327   -0.0237425580    8.6501369496
C        6.6665796672   -1.8221009028    7.5705464680
C        4.4701410767   -0.0981006420    7.6839185973
C        5.6695643408   -1.9209700051    6.5874285361
C        4.5615449097   -1.0431816329    6.6530491934
C        8.2354888122   -3.1147363353    1.6969423824
C        7.2409652056   -4.3258690111    3.2727504978
C        5.7572178382   -2.9078989428    5.5037794468
C        8.1255593126   -4.3575265224    0.8512259464
C        2.4746706442   -0.3369253078    5.7028688202
N        7.7955840726   -3.0911329403    2.9001613484
N        6.7335911341   -4.6368276617    4.4011554515
N        6.7598195010   -3.7076233250    5.4165092641
O        8.8182721249   -2.0552031702    1.1131251742
O        3.6197492137   -1.1823672703    5.6667288940
S        7.3144450410   -5.5650543228    1.9568460731
H        7.3592201146   -0.8234529012    9.3515037161
H        5.3964098833    0.7124515854    9.4457299888
H        7.5095246657   -2.5031480346    7.5064254294
H        3.6255695363    0.5784160732    7.7442782352
H        4.9409516792   -2.9414885640    4.7796201855
H        7.5288890248   -4.1581777147   -0.0435299307
H        9.1193350440   -4.6919699425    0.5399150015
H        1.8655875362   -0.6253576926    4.8451068446
H        2.7544601980    0.7196610399    5.6107483016
H        1.8979164355   -0.4845932821    6.6239379707
H        8.8275314259   -1.3338086470    1.7716868185
28   
Generated by ForceBalance from scan.xyz: Frame 19 of 24
C        6.6412058365   -0.8074002693    8.4660492625
C        5.5187615590    0.0097739944    8.6338982537
C        6.6683927282   -1.7263153149    7.4184719892
C        4.4300438801   -0.0896778217    7.7622560025
C        5.5892020769   -1.8510665965    6.5294925818
C        4.4608508929   -1.0163855225    6.7113205084
C        8.4903096943   -3.2362718771    1.6957381978
C        7.1793070679   -4.2813830428    3.1530452152
C        5.6124256975   -2.8193943700    5.4259878613
C        8.2646591069   -4.4426917819    0.8207847273
C        2.2741048352   -0.3717205636    5.9635244291
N        7.9519579505   -3.1483181088    2.8553143491
N        6.5194839397   -4.5082033865    4.2209147120
N        6.6216954932   -3.5962742870    5.2506432896
O        9.2825426131   -2.2797719081    1.1859379291
O        3.4378372221   -1.1783857584    5.8139618954
S        7.1744081536   -5.5099778029    1.8257583255
H        7.4850329200   -0.7264491531    9.1454289153
H        5.4838135139    0.7316025116    9.4459192225
H        7.5275186998   -2.3716930805    7.2639450555
H        3.5702426522    0.5531952751    7.9108782363
H        4.7465515020   -2.8555531402    4.7622599254
H        7.7931975955   -4.1481018036   -0.1211447764
H        9.2179950737   -4.9295387548    0.5959698268
H        1.6010656860   -0.6697792178    5.1584999688
H        2.5108794958    0.6945618202    5.8630649912
H        1.7861450031   -0.5497142165    6.9294760127
H        9.3437988990   -1.5709875405    1.8553815111
28   
Generated by ForceBalance from scan.xyz: Frame 20 of 24
C        6.6713136635   -0.7399067910    8.3595444219
C        5.5339789644    0.0288161483    8.6268952840
C        6.6548095378   -1.6330664851    7.2899264291
C        4.3889223186   -0.0931421213    7.8338409344
C        5.5188292883   -1.7811005228    6.4779065557
C        4.3763291655   -0.9946747978    6.7607754593
C        8.7042314492   -3.3671393813    1.6984891985
C        7.1434090655   -4.2101486906    3.0353841592
C        5.4976657485   -2.7258897413    5.3552187403
C        8.3735707875   -4.5254886410    0.7927211533
C        2.1194609110   -0.4165588685    6.1877746449
N        8.0943883108   -3.2031723955    2.8138175747
N        6.3652689082   -4.3394783852    4.0394323538
N        6.5279471997   -3.4476069884    5.0832370132
O        9.6653149589   -2.5363230879    1.2645933431
O        3.2973660444   -1.1758908105    5.9359561066
S        7.0624555151   -5.4210343201    1.6959731153
H        7.5589178034   -0.6410641317    8.9781250929
H        5.5313941411    0.7310858390    9.4566072008
H        7.5237557328   -2.2403579373    7.0564267286
H        3.5195648579    0.5132579694    8.0598770749
H        4.5852060220   -2.7927204624    4.7599978895
H        8.0264084659   -4.1632558295   -0.1791439991
H        9.2595372251   -5.1476571532    0.6367056129
H        1.4007253594   -0.7228959518    5.4265746498
H        2.3100807060    0.6596428641    6.0952765796
H        1.7098313666   -0.6325157006    7.1819637428
H        9.7756808760   -1.8450613213    1.9460070888
28   
Generated by ForceBalance from scan.xyz: Frame 21 of 24
C        6.7041733856   -0.6411020525    8.2149945067
C        5.5517066743    0.0477445291    8.6071799376
C        6.6513379303   -1.4915298095    7.1124384630
C        4.3536703302   -0.1115728005    7.9042441771
C        5.4612139465   -1.6755849944    6.3894501751
C        4.3033165351   -0.9698710600    6.7973729173
C        8.9181202047   -3.5050486649    1.7243783154
C        7.1008732996   -4.0719091317    2.8668219274
C        5.4007178022   -2.5750265804    5.2331962763
C        8.4719185446   -4.5546397266    0.7392528446
C        1.9774806105   -0.5070858870    6.4338924492
N        8.2392502393   -3.2586630176    2.7834618811
N        6.2081385400   -4.0837750051    3.7826450817
N        6.4358880974   -3.2501563598    4.8680517794
O       10.0560177788   -2.8599971581    1.4226841093
O        3.1717862780   -1.1843264423    6.0562539511
S        6.9293407709   -5.2041218102    1.4702939894
H        7.6330105105   -0.5122785263    8.7634948017
H        5.5787526198    0.7162339097    9.4639637348
H        7.5308555683   -2.0353982077    6.7821679263
H        3.4730925443    0.4323646764    8.2256435588
H        4.4566772104   -2.6521188797    4.6909973892
H        8.3019901894   -4.1084387174   -0.2447122362
H        9.2361740447   -5.3311977347    0.6427955459
H        1.2171717019   -0.8266990158    5.7200562087
H        2.0985781314    0.5813267636    6.3728960368
H        1.6641393246   -0.7853619840    7.4474130868
H       10.2221515644   -2.2208565213    2.1426035252
28   
Generated by ForceBalance from scan.xyz: Frame 22 of 24
C        6.7045565362   -0.5315227305    8.1187181335
C        5.5397391513    0.0716232603    8.6048388586
C        6.6345779157   -1.3422217834    6.9878238677
C        4.3123382357   -0.1330136397    7.9673379826
C        5.4152030383   -1.5705631035    6.3279581249
C        4.2450269636   -0.9511862752    6.8314272935
C        9.0598677943   -3.6694080089    1.7728532464
C        7.0803217583   -3.9323621140    2.7404310913
C        5.3369707700   -2.4279037008    5.1432078436
C        8.5306149209   -4.6111143480    0.7221664284
C        1.8800124990   -0.6106512500    6.6195192052
N        8.3423651986   -3.3267615198    2.7784776053
N        6.1143074462   -3.8102523463    3.5735283915
N        6.3871787886   -3.0234419043    4.6874644925
O       10.3124233926   -3.2237166818    1.5875961999
O        3.0855130329   -1.2053374785    6.1494533452
S        6.8416856595   -4.9945119430    1.3013411985
H        7.6556981965   -0.3672648985    8.6172572934
H        5.5799435432    0.7082392888    9.4850619530
H        7.5220415168   -1.8202793115    6.5849962216
H        3.4229615962    0.3448819444    8.3613112645
H        4.3683986808   -2.5471420112    4.6547449017
H        8.5265035437   -4.1272194049   -0.2586470753
H        9.1561525496   -5.5066799136    0.6667325077
H        1.0980763910   -0.9473274107    5.9376475892
H        1.9380885106    0.4843151043    6.5937893706
H        1.6418486801   -0.9419372508    7.6375371064
H       10.5194915381   -2.6333519772    2.3379391551
28   
Generated by ForceBalance from scan.xyz: Frame 23 of 24
C        6.7002005893   -0.4263840238    8.0326411232
C        5.5288410632    0.0824450622    8.6037380752
C        6.6198792414   -1.1901201843    6.8703861456
C        4.2841574755   -0.1697702212    8.0190298811
C        5.3833910178   -1.4629703438    6.2602808634
C        4.2064576916   -0.9397753987    6.8505678213
C        9.1405461250   -3.8388157492    1.8338395727
C        7.0645527600   -3.7725323346    2.6111817523
C        5.2952304630   -2.2678044168    5.0413128384
C        8.5596719453   -4.6563732587    0.7091747679
C        1.8180959060   -0.7349262088    6.7722860486
N        8.4011722206   -3.3951030254    2.7825367580
N        6.0552426303   -3.5056916679    3.3576778606
N        6.3560355315   -2.7684397367    4.5003395570
O       10.4622393598   -3.6117079088    1.7757049812
O        3.0301345381   -1.2344910778    6.2161099565
S        6.7840100391   -4.7528760826    1.1238874914
H        7.6645423899   -0.2260925402    8.4910273642
H        5.5772314687    0.6810525770    9.5098543188
H        7.5116158409   -1.5960467438    6.4030299099
H        3.3897946657    0.2345922817    8.4785785493
H        4.3115897571   -2.4341079942    4.5990184361
H        8.7288084612   -4.1605435698   -0.2509124972
H        9.0259745472   -5.6452844406    0.6780830050
H        1.0227840450   -1.0880465025    6.1146694826
H        1.8110725842    0.3615918036    6.7950386540
H        1.6528610493   -1.1243566121    7.7841662004
H       10.6948815714   -3.0779125377    2.5601790592
28   
Generated by ForceBalance from scan.xyz: Frame 24 of 24
C        6.7077092352   -0.3206876915    7.9668130284
C        5.5332368095    0.0843554282    8.6100872149
C        6.6238929907   -1.0321378359    6.7721344182
C        4.2825649490   -0.2191367307    8.0637997370
C        5.3812374262   -1.3522331508    6.1982274517
C        4.2007266465   -0.9350206693    6.8617206976
C        9.1631692673   -3.9874726283    1.8967973056
C        7.0634979091   -3.5934362949    2.4933888888
C        5.2903510119   -2.0992297494    4.9436692836
C        8.5615314521   -4.6873605250    0.7057850823
C        1.8031865610   -0.8743798479    6.8885130191
N        8.4225340165   -3.4413232338    2.7895382513
N        6.0441798994   -3.1796998184    3.1558291836
N        6.3559399674   -2.4879754346    4.3245134395
O       10.5041073678   -3.9753845904    1.9577069382
O        3.0181873513   -1.2722425226    6.2611860101
S        6.7636690891   -4.5004132714    0.9642866710
H        7.6769032925   -0.0821825534    8.3957152256
H        5.5838130865    0.6401497773    9.5429778991
H        7.5176827017   -1.3596280289    6.2503211225
H        3.3858380622    0.1045306136    8.5792441599
H        4.3005066317   -2.3212290948    4.5416289576
H        8.8922947531   -4.2128943995   -0.2225192407
H        8.8645659894   -5.7381333766    0.6878214917
H        1.0032573449   -1.2430320051    6.2451908468
H        1.7329332977    0.2173332320    6.9667070119
H        1.7033181556   -1.3212015288    7.8851463168
H       10.7483324013   -3.4939023346    2.7719523502
