47

C      2.95862    2.06976   -3.27361
C      2.39130    1.51925   -2.12541
C      0.44260    0.75139   -3.39722
C      2.24612    1.96038   -4.46750
C      1.01430    1.31706   -4.53114
C      1.14608    0.87246   -2.19366
C      2.59559    2.45201   -5.82094
C      1.29346   -0.60590   -0.20839
C     -0.67577    0.59699   -0.46539
C      0.52939    1.38661   -5.95453
C      0.37563   -0.95720    0.96324
C      1.04600   -0.51225    2.27380
C      0.08659   -2.46474    0.96153
C     -4.42144   -0.89078    1.76986
C     -3.14614   -1.01446    0.93040
C     -5.55588   -1.77977    1.24884
C     -2.01700   -0.13593    1.48092
C     -6.83401   -1.63539    2.06269
N      0.60351    0.30620   -1.00092
N     -0.81460   -0.15371    0.65259
O      3.57174    3.05569   -6.19957
O      2.41315   -1.03926   -0.40191
O      1.56538    2.09542   -6.66814
O     -7.81534   -2.51855    1.50721
S     -1.76585    1.68143   -1.09257
H      3.92009    2.57359   -3.24643
H      2.90568    1.57823   -1.17253
H     -0.51650    0.24613   -3.42242
H      0.40722    0.40159   -6.41636
H     -0.40513    1.94735   -6.05775
H      0.42972   -0.78089    3.13638
H      1.20587    0.56971    2.28171
H      2.01316   -1.01159    2.37036
H     -0.55764   -2.73179    1.80419
H      1.02791   -3.01210    1.05394
H     -0.40601   -2.76844    0.03396
H     -4.20201   -1.15041    2.81527
H     -4.74662    0.15809    1.77328
H     -3.35137   -0.71000   -0.10055
H     -2.81844   -2.05992    0.90049
H     -5.77698   -1.53159    0.20408
H     -5.24873   -2.83250    1.26664
H     -2.35562    0.90127    1.55483
H     -1.73172   -0.46377    2.48443
H     -7.18421   -0.59244    2.02650
H     -6.63811   -1.88712    3.11670
H     -8.63878   -2.41331    2.00796
