64

C     -0.13785    5.18016   -2.43803
C      1.21267    6.68560   -1.11096
C     -0.96012    6.24232   -2.82017
C      0.40296    7.75954   -1.48912
C      0.95464    5.38689   -1.58031
C      1.83745    4.25290   -1.17652
C      2.56116    3.52907   -2.14796
C      1.97253    3.90683    0.18174
C     -0.67216    7.51459   -2.33734
C      3.37332    2.46849   -1.70733
C      2.87143    2.87742    0.52208
C     -0.10543    3.51987   -8.28452
C      0.72126    4.66668   -7.68751
C      0.46013    2.15561   -7.86595
C      0.83350    4.54490   -6.16135
C      0.57889    2.04534   -6.33990
C      1.41444    3.18538   -5.74411
C      3.73561    0.09661   -2.45442
C      5.66787    1.74285   -2.43511
C      4.65541    2.35764    2.22450
C      2.43051    1.13695    2.27166
C      2.46271    3.87590   -3.61731
C      1.15588    4.59417    1.24718
C      4.15519    1.56387   -2.65174
C      3.14482    2.46544    1.96172
N      3.52722    2.17762   -0.40852
N      1.44209    3.04981   -4.28131
O      1.95694    5.62384    1.86250
F     -1.46638    8.55422   -2.70868
H     -0.32114    4.18615   -2.83297
H      2.04849    6.85221   -0.43882
H     -1.80601    6.09486   -3.48485
H      0.59589    8.76867   -1.13775
H     -0.13443    3.59945   -9.37764
H     -1.14359    3.60312   -7.93430
H      1.72767    4.65457   -8.12852
H      0.27786    5.63380   -7.95103
H     -0.17153    1.34608   -8.24970
H      1.45174    2.02056   -8.31916
H      1.44801    5.36158   -5.76844
H     -0.15766    4.64798   -5.70140
H     -0.42001    2.07683   -5.88502
H      1.02327    1.07914   -6.06496
H      2.43785    3.11320   -6.16343
H      3.94651   -0.22384   -1.43069
H      4.28224   -0.55453   -3.14543
H      2.66287   -0.03906   -2.63480
H      5.93439    1.48476   -1.40633
H      5.97270    2.77964   -2.61462
H      6.23422    1.09728   -3.11559
H      5.10567    1.59568    1.58331
H      4.83814    2.08869    3.27080
H      5.15580    3.31072    2.02453
H      2.80261    0.34553    1.61337
H      1.34791    1.21895    2.12138
H      2.60795    0.83481    3.30989
H      2.17990    4.92443   -3.72099
H      3.45074    3.77485   -4.09616
H      0.25449    5.02906    0.80327
H      0.83616    3.86553    2.00257
H      3.92914    1.83879   -3.68522
H      2.75446    3.23916    2.62645
H      1.61951    2.07378   -4.04740
H      1.40917    6.06264    2.53325
