23   

C        5.6769413020    1.7847255234    0.0954280617
C        4.7637502595    2.0977748118   -0.9109643334
C        5.4548728663    0.6703277682    0.9041047981
C        3.6365486255    1.2927406435   -1.1114235844
C        4.3260976518   -0.1327727678    0.7021366236
C        3.3976863882    0.1482551491   -0.3220298855
C        1.2990074193   -0.6137883775   -1.5396241384
C        2.1983112263   -0.6870352723   -0.5130619146
C        0.1550238797   -1.5573113408   -1.3357380790
C        1.7411792988   -1.7138808513    0.5142638396
C        0.8016909172   -2.5534063644   -0.3644668454
H        6.5515691684    2.4061422832    0.2512139474
H        4.9257693186    2.9674658990   -1.5374737705
H        6.1578683534    0.4255947216    1.6921966303
H        2.9412955716    1.5694081059   -1.8933102378
H        4.1932265729   -0.9833445970    1.3567809905
H        1.3998230066    0.0236709382   -2.4094055091
H       -0.1760995657   -2.0384795336   -2.2614846520
H       -0.6767408301   -1.0303497616   -0.8569151625
H        1.1890098537   -1.2143592056    1.3167672768
H        2.5458963038   -2.3327030355    0.9203075163
H        0.0773490204   -3.1430258802    0.2063304202
H        1.4216210022   -3.2376057925   -0.9540562309
23   

C        5.6330623643    1.7917220384    0.1335699193
C        4.6532813670    2.1702093609   -0.7851484918
C        5.4888723414    0.5994907520    0.8445563424
C        3.5390799002    1.3507647163   -0.9997260304
C        4.3722669357   -0.2171164604    0.6293439742
C        3.3879415249    0.1268787584   -0.3171525404
C        1.3465566331   -0.6824941781   -1.5853423778
C        2.1913202213   -0.7122278493   -0.5124870485
C        0.1628487201   -1.5751872282   -1.3774350435
C        1.6315449795   -1.6215807353    0.5725220574
C        0.7170353214   -2.5052309998   -0.2890523806
H        6.4986734517    2.4233074640    0.2985223185
H        4.7531859934    3.1015841232   -1.3307498825
H        6.2433385012    0.3044689924    1.5649036082
H        2.7838425209    1.6744717258   -1.7049038421
H        4.2932627929   -1.1344110498    1.1976712271
H        1.5190089328   -0.1101259534   -2.4890324885
H       -0.1262461300   -2.1229231837   -2.2800337693
H       -0.6793458758   -0.9883445535   -0.9968083844
H        1.0492989394   -1.0302068067    1.2864748148
H        2.3849959715   -2.2213862330    1.0898441844
H       -0.0597555226   -3.0223198715    0.2830622884
H        1.3467102654   -3.2552613483   -0.7801102136
23   

C        5.6171036706    1.7912129855    0.1736480747
C        4.5786940806    2.2276920541   -0.6516611580
C        5.5418814736    0.5320485389    0.7729424456
C        3.4763862531    1.3981967030   -0.8885834560
C        4.4361889698   -0.2932392889    0.5355954238
C        3.4032627972    0.1089207824   -0.3287415061
C        1.4139376799   -0.7555970826   -1.6328213267
C        2.2086362474   -0.7352390689   -0.5238182256
C        0.1935788867   -1.5962903927   -1.4173800419
C        1.5561086867   -1.5166423168    0.6072323220
C        0.6580728574   -2.4451343672   -0.2239942082
H        6.4739880635    2.4302022019    0.3548355315
H        4.6237809953    3.2110238915   -1.1056874600
H        6.3402673130    0.1929201081    1.4230939134
H        2.6693056238    1.7585156546   -1.5149400028
H        4.3960998741   -1.2647215224    1.0122501048
H        1.6485308660   -0.2486368979   -2.5616455776
H       -0.0626281830   -2.2118403446   -2.2855947872
H       -0.6495581798   -0.9571727415   -1.1362691481
H        0.9584588892   -0.8409378668    1.2275009381
H        2.2625530704   -2.0820950689    1.2214711481
H       -0.1650544383   -2.8866919649    0.3465832419
H        1.2865284355   -3.2537526583   -0.6131328813
23   

C        5.6156553038    1.7764316613    0.2043461615
C        4.5198099599    2.2665179000   -0.5103295325
C        5.6035519600    0.4610242265    0.6751455770
C        3.4240556432    1.4345542003   -0.7686015091
C        4.5035515593   -0.3655150023    0.4166169484
C        3.4191384829    0.0935790363   -0.3472131755
C        1.4828994341   -0.8443283267   -1.6811953826
C        2.2247493325   -0.7562099141   -0.5408781989
C        0.2296270464   -1.6336046491   -1.4580944238
C        1.4884616942   -1.4034335867    0.6223556556
C        0.6049493029   -2.3805207783   -0.1678902383
H        6.4675108800    2.4173603393    0.4016658191
H        4.5153064803    3.2923810390   -0.8606116417
H        6.4449512377    0.0804199957    1.2428526453
H        2.5690859296    1.8284197128   -1.3052781909
H        4.4993333584   -1.3807486858    0.7950202014
H        1.7754716150   -0.4134381798   -2.6318878128
H        0.0030563586   -2.3205489333   -2.2797778860
H       -0.6090797037   -0.9521138907   -1.2838013105
H        0.8832003325   -0.6539490943    1.1423805148
H        2.1490329831   -1.9229614801    1.3229842622
H       -0.2600641170   -2.7449434547    0.3951364802
H        1.2266349773   -3.2384888925   -0.4466256565
23   

C        5.6326477926    1.7504111544    0.2006560296
C        4.4749748371    2.2919510832   -0.3648615204
C        5.6781955114    0.3903739399    0.5195769849
C        3.3731114612    1.4688605389   -0.6258677611
C        4.5720264268   -0.4272089136    0.2587692582
C        3.4231676683    0.0917078029   -0.3552662704
C        1.5686624770   -0.9696587120   -1.7221263862
C        2.2263393877   -0.7610091579   -0.5477672208
C        0.2927919886   -1.7233515282   -1.5030098659
C        1.4050403639   -1.2720187919    0.6261761707
C        0.5671177247   -2.3256161729   -0.1144591601
H        6.4886968164    2.3849831320    0.4003605460
H        4.4279131192    3.3497546290   -0.5971233834
H        6.5684887445   -0.0314189949    0.9718772253
H        2.4705396058    1.8954003941   -1.0475473800
H        4.6066799380   -1.4783152638    0.5202064049
H        1.9351760727   -0.6463144942   -2.6897585262
H        0.1154201624   -2.4955754634   -2.2583815519
H       -0.5472934620   -1.0226225980   -1.4645528024
H        0.7746187817   -0.4674633411    1.0181988092
H        2.0141045431   -1.7126225525    1.4215382309
H       -0.3397806061   -2.6223012664    0.4217912597
H        1.1961681493   -3.2118762872   -0.2527637302
23   

C        5.6866976964    1.7092414347    0.0729747507
C        4.4581625736    2.3005884527   -0.2366138395
C        5.7830731472    0.3180040395    0.1743033616
C        3.3289180960    1.4996500358   -0.4439795983
C        4.6512853653   -0.4792886872   -0.0344754871
C        3.4149758020    0.1014554919   -0.3468766136
C        1.7727659107   -1.2655480558   -1.7300844319
C        2.2139742305   -0.7465139839   -0.5519983296
C        0.5119864797   -2.0481093873   -1.5287835729
C        1.2995216499   -1.1329829327    0.6001637133
C        0.6328169185   -2.3676075732   -0.0282882942
H        6.5621029035    2.3279389905    0.2350459892
H        4.3790176030    3.3788751645   -0.3150540219
H        6.7335647202   -0.1439420049    0.4157256274
H        2.3765206502    1.9589092819   -0.6815474625
H        4.7271326145   -1.5572944240    0.0469055548
H        2.2866755927   -1.1503498283   -2.6776242647
H        0.4643189465   -2.9530628853   -2.1425744930
H       -0.3544445799   -1.4068164390   -1.7215045085
H        0.5694203589   -0.3367525150    0.7764706678
H        1.8412495792   -1.3755266699    1.5197718974
H       -0.3188184885   -2.6371158133    0.4406587004
H        1.3251121604   -3.2098048838    0.0774234902
23   

C        5.7090831203    1.7141987987   -0.0629383920
C        4.4445202906    2.3083313398   -0.0988686608
C        5.8279877363    0.3269681448   -0.1858941732
C        3.3015368006    1.5124576115   -0.2394701665
C        4.6818495802   -0.4639929010   -0.3301512029
C        3.4037715480    0.1132658971   -0.3173723764
C        1.9754245841   -1.5374323157   -1.6079833916
C        2.1991330858   -0.7226865353   -0.5393253872
C        0.7280660656   -2.3420323887   -1.4171917257
C        1.1828758464   -0.9847798282    0.5616839568
C        0.6703736478   -2.3643993557    0.1183384567
H        6.5953214274    2.3281273634    0.0513110511
H        4.3482555782    3.3852705562   -0.0210768722
H        6.8075770142   -0.1370103048   -0.1711712888
H        2.3234250373    1.9770571724   -0.2815926297
H        4.7793341535   -1.5381738886   -0.4352849440
H        2.6390618876   -1.6188693881   -2.4612480802
H        0.7915272312   -3.3462900206   -1.8472398647
H       -0.1283626282   -1.7990814893   -1.8315031262
H        0.3861803540   -0.2360325018    0.5109241687
H        1.6267121498   -1.0090086898    1.5619330367
H       -0.3188407048   -2.6109387522    0.5169652792
H        1.3865425031   -3.1161427664    0.4665451072
23   

C        5.6960878291    1.7225512932   -0.0509702506
C        4.4247704140    2.2854584653    0.0859430872
C        5.8238811780    0.3621965417   -0.3429391539
C        3.2858875338    1.4831937795   -0.0508619532
C        4.6814540149   -0.4349440225   -0.4823639031
C        3.3980327187    0.1026655345   -0.2941189738
C        2.0410528724   -1.6477146639   -1.5202798544
C        2.1942385425   -0.7234049831   -0.5290747895
C        0.7661173793   -2.4132848220   -1.3535726925
C        1.0815261581   -0.8594184213    0.4997002853
C        0.5822622106   -2.2734386737    0.1647470438
H        6.5797535074    2.3409309566    0.0591330715
H        4.3195327136    3.3442459679    0.2933233080
H        6.8078482107   -0.0762959991   -0.4638906808
H        2.3023839965    1.9293906494    0.0376792649
H        4.7913383813   -1.4866649845   -0.7186954475
H        2.7689649311   -1.8309293610   -2.3022427820
H        0.8448987268   -3.4579143347   -1.6699351510
H       -0.0420077623   -1.9072176503   -1.8927523655
H        0.3053996974   -0.1137607925    0.3007204278
H        1.4367416105   -0.7797720319    1.5319715932
H       -0.4407975113   -2.4665312146    0.5027930196
H        1.2537713142   -2.9904806962    0.6487661878
23   

C        5.6915422921    1.7261291285   -0.0140575659
C        4.4213142107    2.2418134569    0.2529562934
C        5.8254882788    0.4050203376   -0.4473517450
C        3.2903226880    1.4312886120    0.1007393514
C        4.6913159820   -0.4012031443   -0.6011863872
C        3.4092259711    0.0860422064   -0.2939578817
C        2.0833585562   -1.7335882240   -1.4560072290
C        2.2093248496   -0.7377691223   -0.5305899238
C        0.7744849904   -2.4452322185   -1.3134572623
C        1.0170345369   -0.7455788117    0.4153739512
C        0.4938838815   -2.1688891206    0.1704589702
H        6.5691688026    2.3511132668    0.1065704832
H        4.3103193976    3.2713781710    0.5735670490
H        6.8083718614    0.0036042658   -0.6662484364
H        2.3085217966    1.8472981533    0.2929931609
H        4.8131657561   -1.4217904955   -0.9429257186
H        2.8454766762   -2.0014916699   -2.1783249560
H        0.8388300305   -3.5153858409   -1.5331641146
H        0.0218654965   -1.9659493673   -1.9487521075
H        0.2850744664    0.0003831358    0.0899702704
H        1.2951907778   -0.5825532407    1.4614147580
H       -0.5555455157   -2.3030847957    0.4513049861
H        1.1069146599   -2.8587986038    0.7602053577
23   

C        5.6837753128    1.7262367261    0.0218160765
C        4.4203375578    2.1804716634    0.4055151446
C        5.8208663614    0.4557525305   -0.5413298046
C        3.2988524127    1.3603006975    0.2353977367
C        4.6970164149   -0.3613240912   -0.7124344754
C        3.4209505649    0.0658961469   -0.3031922162
C        2.1131631387   -1.8167237722   -1.3960144276
C        2.2279696074   -0.7665864348   -0.5296377703
C        0.7731063576   -2.4736112478   -1.2809408115
C        0.9755226386   -0.6562886704    0.3280681760
C        0.4130835671   -2.0750507161    0.1569163505
H        6.5536584322    2.3593903555    0.1552811520
H        4.3068928213    3.1706536758    0.8318920832
H        6.7987725849    0.1014926568   -0.8468187451
H        2.3252170587    1.7369217859    0.5245009572
H        4.8283633685   -1.3422642943   -1.1513363983
H        2.8953169605   -2.1574153874   -2.0636202958
H        0.8120874475   -3.5591698429   -1.4143241569
H        0.0775361787   -2.0223204932   -1.9965545748
H        0.2976085926    0.0867763516   -0.1038622228
H        1.1875727176   -0.4239082778    1.3764937091
H       -0.6560159678   -2.1515170989    0.3790610793
H        0.9614382468   -2.7380678272    0.8347343778
23   

C        5.6848693393    1.7200640534    0.0568216499
C        4.4374208882    2.1090771258    0.5483672461
C        5.8123737615    0.5087910307   -0.6255666389
C        3.3210436618    1.2850893368    0.3627961628
C        4.6947768224   -0.3134327528   -0.8116547476
C        3.4325919138    0.0533148632   -0.3090337852
C        2.1417311061   -1.8882398515   -1.3286570152
C        2.2461631201   -0.7920407375   -0.5187855407
C        0.7743821614   -2.4929688227   -1.2552931997
C        0.9427880510   -0.5740788432    0.2370283480
C        0.3359888914   -1.9801627398    0.1227979820
H        6.5499770652    2.3572787193    0.2015716710
H        4.3321948768    3.0522799671    1.0722499880
H        6.7784211796    0.2040971509   -1.0116266697
H        2.3652659688    1.6212864363    0.7444870552
H        4.8239043600   -1.2476340460   -1.3424403683
H        2.9424260932   -2.2941740329   -1.9343846246
H        0.7832382032   -3.5861349086   -1.3079848481
H        0.1425725039   -2.0744917826   -2.0459120299
H        0.3279528767    0.1616837883   -0.2912111303
H        1.0866351758   -0.2832355937    1.2822956405
H       -0.7476621647   -2.0032207904    0.2755304131
H        0.8108375712   -2.6125922849    0.8807035814
23   

C        5.6957329972    1.7059698725    0.0879560203
C        4.4761313583    2.0281064221    0.6856383115
C        5.7955666697    0.5626842974   -0.7064473322
C        3.3582652788    1.2080694924    0.4905651557
C        4.6775560136   -0.2567461846   -0.9012851913
C        3.4395211056    0.0501590050   -0.3058373391
C        2.1708908898   -1.9446652946   -1.2542002283
C        2.2580617444   -0.8081433185   -0.4991277687
C        0.7837087660   -2.5067921883   -1.2401805921
C        0.9101780687   -0.4979625792    0.1382523226
C        0.2618162638   -1.8882412010    0.0627588081
H        6.5610401881    2.3413608612    0.2394140237
H        4.3937190651    2.9164333198    1.3014885121
H        6.7405028212    0.3086463061   -1.1730199790
H        2.4311102992    1.4990560832    0.9661130564
H        4.7872369474   -1.1364761131   -1.5215421882
H        2.9937528941   -2.4057115534   -1.7860211073
H        0.7625657137   -3.6008824847   -1.2169407826
H        0.2238729416   -2.1291520756   -2.1021989797
H        0.3658970703    0.2241917898   -0.4787444326
H        0.9768431421   -0.1558762789    1.1751866993
H       -0.8303706445   -1.8670508153    0.1322461874
H        0.6537525106   -2.4842949977    0.8940918962
23   

C        5.7315729032    1.6882991753    0.1200300605
C        4.5546001892    1.9388185696    0.8272734815
C        5.7815596510    0.6262664780   -0.7840594909
C        3.4279244986    1.1318844830    0.6278450680
C        4.6551139191   -0.1807188173   -0.9817835288
C        3.4543747442    0.0641956737   -0.2890751920
C        2.2111179471   -1.9723104592   -1.1733924975
C        2.2742189628   -0.7995502354   -0.4736592417
C        0.8144197528   -2.5080119201   -1.2239331168
C        0.8901452267   -0.4153842120    0.0318861634
C        0.2110623959   -1.7925566887   -0.0086243507
H        6.6031779292    2.3144624553    0.2737854153
H        4.5128748574    2.7598155442    1.5339660872
H        6.6938943839    0.4262001365   -1.3342819677
H        2.5394805110    1.3599730023    1.2005519661
H        4.7237263690   -0.9953644960   -1.6908090841
H        3.0589506808   -2.4760875277   -1.6209156326
H        0.7676938582   -3.5973524799   -1.1272928545
H        0.3278049525   -2.1823314028   -2.1490836956
H        0.4182311364    0.2776845422   -0.6719422987
H        0.8766185243   -0.0099609388    1.0470224562
H       -0.8822173575   -1.7422928764   -0.0271218736
H        0.5202038260   -2.3416417798    0.8874755419
23   

C        5.7454018304    1.6554766279    0.1401239680
C        4.6175151820    1.8297952203    0.9441357516
C        5.7376972894    0.6811598483   -0.8595726851
C        3.4807989648    1.0381480536    0.7413303565
C        4.6007144762   -0.1106992523   -1.0587335802
C        3.4431219064    0.0702795317   -0.2797042664
C        2.2357556884   -2.0099053282   -1.0899287187
C        2.2651530760   -0.7983991961   -0.4587912149
C        0.8400590642   -2.5407725097   -1.1972916070
C        0.8517030630   -0.3605040485   -0.1013692837
C        0.1598508924   -1.7315678129   -0.0844387688
H        6.6249812545    2.2700809138    0.2950612830
H        4.6230300926    2.5767503339    1.7297484814
H        6.6130757709    0.5375476107   -1.4826352940
H        2.6296467179    1.1865405264    1.3926831064
H        4.6190029105   -0.8586689131   -1.8413181107
H        3.1102826992   -2.5424745962   -1.4440140761
H        0.7757427630   -3.6192626670   -1.0212281066
H        0.4223507261   -2.2848743478   -2.1763690113
H        0.4490974152    0.2735484708   -0.8978288832
H        0.7664284420    0.1368181799    0.8683808276
H       -0.9285600705   -1.6753940322   -0.1859479749
H        0.3975007605   -2.2120677842    0.8709615262
23   

C        5.7606189453    1.6279769609    0.1507607466
C        4.6870007917    1.7168690618    1.0395663630
C        5.6930618834    0.7464020462   -0.9303985653
C        3.5426793145    0.9364979462    0.8367961046
C        4.5481575494   -0.0346313641   -1.1278154551
C        3.4396109017    0.0748100277   -0.2706976421
C        2.2642177953   -2.0507342762   -0.9937762712
C        2.2654581360   -0.8032193318   -0.4396165551
C        0.8719999106   -2.5782900224   -1.1551631082
C        0.8376129369   -0.3191486278   -0.2340058953
C        0.1255726015   -1.6778644221   -0.1591757699
H        6.6460977912    2.2343890162    0.3043179279
H        4.7415171883    2.3866110768    1.8902158058
H        6.5281816998    0.6657026947   -1.6168167072
H        2.7284015951    1.0019431710    1.5478118199
H        4.5140723670   -0.7167729316   -1.9686031063
H        3.1580736752   -2.6042553341   -1.2569559683
H        0.7822414204   -3.6387591184   -0.8988712570
H        0.5257958234   -2.3987998425   -2.1780620017
H        0.5099288592    0.2500307100   -1.1098792334
H        0.6964257509    0.2641401017    0.6804412265
H       -0.9518913070   -1.6199873891   -0.3430017984
H        0.2876171232   -2.0832838376    0.8456173786
23   

C        5.7734513428    1.6064218769    0.1505372277
C        4.7669175730    1.5958870459    1.1194298609
C        5.6339897626    0.8293731038   -1.0022806750
C        3.6157112069    0.8238209809    0.9242837420
C        4.4823559565    0.0559630028   -1.1909296356
C        3.4370423665    0.0768424907   -0.2538317657
C        2.2847011260   -2.0903499562   -0.8787133589
C        2.2632693699   -0.8078743272   -0.4153209700
C        0.8995987342   -2.6155020312   -1.1002921605
C        0.8345858116   -0.2877179694   -0.3678701500
C        0.0943471487   -1.6275668343   -0.2410526511
H        6.6638145204    2.2073055498    0.2974194705
H        4.8791316600    2.1813672798    2.0248227709
H        6.4186237151    0.8232088629   -1.7502153342
H        2.8487403161    0.8046175918    1.6894111950
H        4.3883041959   -0.5513970998   -2.0833250531
H        3.1902917112   -2.6631481529   -1.0426761769
H        0.7739877141   -3.6498364866   -0.7645004692
H        0.6334710158   -2.5190865037   -2.1577122974
H        0.5894538441    0.2124026717   -1.3103568741
H        0.6404460185    0.3717882963    0.4834510667
H       -0.9645313776   -1.5723094521   -0.5126625626
H        0.1708568844   -1.9516383417    0.8026947199
23   

C        5.7760156658    1.6035303020    0.1342383370
C        4.8565538136    1.4624485923    1.1773274189
C        5.5511978167    0.9525263158   -1.0820310733
C        3.7061961241    0.6858448357    0.9954004053
C        4.4009229587    0.1739147840   -1.2574218498
C        3.4445102499    0.0644123029   -0.2375125344
C        2.2925023819   -2.1439316173   -0.7189604564
C        2.2654146535   -0.8187333144   -0.4041561714
C        0.9150401185   -2.6655969407   -0.9914755791
C        0.8530743617   -0.2675306500   -0.5254935841
C        0.0713611790   -1.5730513422   -0.3130266451
H        6.6650688030    2.2086956740    0.2711297117
H        5.0352059307    1.9510978827    2.1283391293
H        6.2681446699    1.0485907257   -1.8894015560
H        3.0028472202    0.5656905263    1.8110087735
H        4.2362795558   -0.3378804015   -2.1983639163
H        3.1951899417   -2.7436294936   -0.7463879355
H        0.7362228295   -3.6535653261   -0.5552269352
H        0.7343369771   -2.6832064504   -2.0709646756
H        0.6937349218    0.1308461316   -1.5326319169
H        0.6164180112    0.4847601332    0.2333274176
H       -0.9616403169   -1.5302516840   -0.6723727477
H        0.0582267262   -1.7803188150    0.7626841796
23   

C        5.7039651284    1.7194978515    0.0989672023
C        4.9317141747    1.3528926951    1.2052935229
C        5.3619988784    1.2518396887   -1.1735774770
C        3.8195270993    0.5196815908    1.0366584415
C        4.2490547424    0.4183412082   -1.3375515682
C        3.4681396699    0.0426152271   -0.2364538470
C        2.2528800489   -2.1905486789   -0.3468283057
C        2.2821843361   -0.8317888254   -0.4169077549
C        0.8692463917   -2.7071265552   -0.5938213602
C        0.9008259448   -0.2623437947   -0.7007623089
C        0.0496623487   -1.4550699182   -0.2352491511
H        6.5652503267    2.3653194319    0.2273834409
H        5.1929386120    1.7139606820    2.1934777505
H        5.9576836206    1.5349056567   -2.0338961974
H        3.2202939409    0.2373468485    1.8943651289
H        3.9846865648    0.0582649536   -2.3249168364
H        3.1124604921   -2.8075799309   -0.1110323520
H        0.6114344638   -3.5653624701    0.0345792566
H        0.7532253639   -2.9578555374   -1.6534587753
H        0.7851714733   -0.0905980694   -1.7755755523
H        0.6842062941    0.6493338600   -0.1351619457
H       -0.9624093060   -1.4592276522   -0.6522080597
H       -0.0225511497   -1.4067202349    0.8566076607
23   

C        5.6094807175    1.8286882407    0.1204456728
C        4.9928246091    1.2367333062    1.2261588280
C        5.1455576353    1.5447860238   -1.1670634988
C        3.9263489223    0.3491941337    1.0401660595
C        4.0766847644    0.6584987861   -1.3463386516
C        3.4830149147    0.0170012399   -0.2500041438
C        2.1674589305   -2.1382215417   -0.0187595838
C        2.2960650298   -0.8501953583   -0.4424731742
C        0.7754990565   -2.6396923129   -0.2439193261
C        0.9529046346   -0.2895329777   -0.8851059800
C        0.0147157299   -1.3046972892   -0.2128614280
H        6.4380583323    2.5134886087    0.2614998900
H        5.3365226033    1.4681076711    2.2278802306
H        5.6106125915    2.0131071051   -2.0270090246
H        3.4381482294   -0.0935548742    1.9004129153
H        3.7105900231    0.4523803454   -2.3452626602
H        2.9593373341   -2.7045771333    0.4579352599
H        0.4349142386   -3.3324913409    0.5316589929
H        0.7061759795   -3.1048277654   -1.2332555890
H        0.8736510636   -0.3451592190   -1.9753030080
H        0.7757766174    0.7329078602   -0.5367198305
H       -0.9769926258   -1.3536526573   -0.6736722209
H       -0.0997175184   -1.0122153321    0.8362488123
23   

C        5.5978040291    1.8345560391    0.1518043180
C        5.0874709810    1.1000554597    1.2253315815
C        5.0317925212    1.6909461262   -1.1176727957
C        4.0265358129    0.2095543460    1.0225660558
C        3.9689226763    0.8011338157   -1.3138737202
C        3.4840031792    0.0134044768   -0.2588623392
C        2.1160908923   -2.0852121443    0.0967096098
C        2.3008388837   -0.8513616009   -0.4529803963
C        0.7331071064   -2.5919881295   -0.1677136635
C        0.9990084558   -0.3301332469   -1.0435278310
C       -0.0015954201   -1.2528114014   -0.3301804664
H        6.4221879572    2.5216856857    0.3055257388
H        5.5088132385    1.2237264076    2.2164347451
H        5.4130217682    2.2709091164   -1.9503865545
H        3.6212126900   -0.3392436906    1.8643549323
H        3.5253787127    0.7059562406   -2.2979631937
H        2.8606340390   -2.6082158775    0.6858118827
H        0.3289003020   -3.1928352606    0.6527407078
H        0.7203791737   -3.1601717123   -1.1041356352
H        0.9903260779   -0.5054154857   -2.1238799220
H        0.8172786416    0.7264435612   -0.8226131840
H       -0.9618859844   -1.3388594153   -0.8484913739
H       -0.1780117399   -0.8465839997    0.6714259077
23   

C        5.6064670660    1.8164934358    0.1681777138
C        5.1840348098    0.9805336713    1.2045541863
C        4.9460916686    1.7823104980   -1.0623508855
C        4.1142715815    0.1004074410    1.0029612280
C        3.8751225376    0.9024351233   -1.2588270254
C        3.4691876097    0.0196370864   -0.2447253227
C        2.0652517993   -2.0428903081    0.1859474508
C        2.2924859941   -0.8486042713   -0.4338548388
C        0.7026920743   -2.5706461766   -0.1377671790
C        1.0423499095   -0.3878491906   -1.1694172031
C       -0.0125915332   -1.2505366056   -0.4601165785
H        6.4372783876    2.4959731246    0.3213073395
H        5.6811244127    1.0168618330    2.1672051971
H        5.2613908960    2.4388289221   -1.8652721911
H        3.7832894977   -0.5259503008    1.8224194320
H        3.3653169792    0.8923905064   -2.2148208692
H        2.7641797747   -2.5283266485    0.8570297981
H        0.2368948957   -3.1039681834    0.6966486079
H        0.7554920302   -3.2123061317   -1.0238892605
H        1.1185961375   -0.6564561900   -2.2277875935
H        0.8433357940    0.6824945430   -1.0555519057
H       -0.9325577290   -1.3795998783   -1.0390719736
H       -0.2603231295   -0.7649576346    0.4898486914
23   

C        5.7530709139    1.6712998941    0.0242763244
C        5.0311469909    1.7338779238   -1.1692580003
C        5.3010890928    0.8567027702    1.0643708841
C        3.8531983778    0.9920259600   -1.3164087780
C        4.1237177848    0.1146372538    0.9137266013
C        3.3636531262    0.1897129285   -0.2672796349
C        1.1532460621   -0.4380414083   -1.3444159098
C        2.1527460967   -0.6308468774   -0.4338707671
C        0.1317836605   -1.5295785969   -1.2696298434
C        1.9406126267   -1.9410672215    0.3108802689
C        0.9939873826   -2.6491550924   -0.6697854223
H        6.6638730244    2.2477495732    0.1406231402
H        5.3851466522    2.3545052979   -1.9845036798
H        5.8624775938    0.7983841679    1.9898832550
H        3.3191789574    1.0418100388   -2.2569843503
H        3.7924009573   -0.5120153320    1.7327921116
H        1.1123081613    0.3800574592   -2.0534836704
H       -0.2818102181   -1.8008286368   -2.2459072000
H       -0.6679221223   -1.2408318899   -0.5792232100
H        1.4400389288   -1.7459296299    1.2646196425
H        2.8646688102   -2.5068324911    0.4664028713
H        0.4111897596   -3.4541727204   -0.2110237341
H        1.6016817973   -3.0715026922   -1.4772966565
23   

C        5.7314928180    1.7094183064    0.0372394296
C        4.9539307119    1.8596426262   -1.1116693085
C        5.3487499304    0.7895900309    1.0142840850
C        3.7936892227    1.0947467247   -1.2794182368
C        4.1885637150    0.0250858553    0.8440324536
C        3.3793782981    0.1687438242   -0.3003233518
C        1.1985768481   -0.5039016544   -1.4240970581
C        2.1709597129   -0.6530664534   -0.4754842674
C        0.1381790695   -1.5515888694   -1.2875884616
C        1.8821376580   -1.8757538466    0.3841812108
C        0.9377256622   -2.6384249040   -0.5566281028
H        6.6292726604    2.3026846530    0.1692356677
H        5.2497406981    2.5685751959   -1.8765427605
H        5.9500703108    0.6676725282    1.9079909704
H        3.2162385002    1.2262966688   -2.1852550633
H        3.9174594666   -0.6748274671    1.6243290380
H        1.1932595730    0.2557181692   -2.1960230839
H       -0.2509814265   -1.8988199588   -2.2497996216
H       -0.6741577933   -1.1749164595   -0.6570265011
H        1.3622901151   -1.5705350854    1.2979585714
H        2.7734476803   -2.4650730171    0.6210032508
H        0.3107726541   -3.3753519402   -0.0447397413
H        1.5526560892   -3.1569339987   -1.3001870858
23   

C        5.6974956777    1.7463720920    0.0606944102
C        4.8555501823    1.9831275071   -1.0255715099
C        5.3928033159    0.7228056479    0.9576719376
C        3.7135819957    1.1960431672   -1.2138379133
C        4.2501296609   -0.0631397009    0.7673613674
C        3.3840991549    0.1506362763   -0.3256557798
C        1.2379119165   -0.5665733704   -1.4945915323
C        2.1803592564   -0.6780998488   -0.5108310367
C        0.1361243306   -1.5632516920   -1.3123927143
C        1.8152727150   -1.8086268234    0.4413892663
C        0.8653502477   -2.6104285260   -0.4608308887
H        6.5822156200    2.3553927562    0.2082148506
H        5.0855523967    2.7786236329   -1.7251493277
H        6.0413705624    0.5365262197    1.8061100850
H        3.0813731162    1.4074708162   -2.0661577988
H        4.0482018738   -0.8395642649    1.4933523294
H        1.2769328707    0.1341633759   -2.3192422422
H       -0.2291498115   -1.9788451632   -2.2567863595
H       -0.6848580606   -1.1066861205   -0.7496945051
H        1.2855927714   -1.4046451843    1.3100952419
H        2.6677156962   -2.4200044753    0.7518249668
H        0.1919124088   -3.2735410893    0.0913621081
H        1.4793429939   -3.2177097873   -1.1347212390
