24   

C       -1.2781328454   -1.2659343833    2.3558988546
C       -3.7704653227    0.3022873498    3.2429989764
C       -4.9904586694    0.8868078555    1.2460867111
C       -4.9035446926    0.6000853924    4.0100537700
C       -6.1162767709    1.1835532012    2.0224739050
C       -3.7937011450    0.4228059300    1.8364152359
C       -6.0854770126    1.0382902698    3.4100906024
C       -2.6854717471    0.1432730852    0.9320187222
C       -0.4559274045   -0.7175778954    0.1276011611
C       -1.5263417131   -0.5549163862    1.1402471041
C       -1.0324566295    0.8666827680   -3.0389172616
N       -1.0334148532   -1.8567807803    3.3295635044
N       -0.3204900432   -0.2232670815   -1.0864964234
O       -1.2756945304    0.6523598740   -1.6485696266
Cl      -7.4929704538    1.4058284849    4.3761372016
H       -2.8886310020    0.0053571634    3.7917383425
H       -5.0602633643    1.0115531492    0.1713311493
H       -4.8640937250    0.4952635078    5.0881816824
H       -7.0266494675    1.5292510817    1.5467674064
H       -2.8809219882    0.4903962606   -0.0686529280
H        0.3705344212   -1.3538497326    0.4251931802
H       -1.8512182801    1.4481158794   -3.4719858035
H       -0.9637283110   -0.0906585943   -3.5652383708
H       -0.0962268380    1.4162947266   -3.1748885689
24   

C       -1.4370496543   -1.3674276535    2.3135916147
C       -3.6799364969    0.5025458457    3.2273298982
C       -5.0665872739    0.7147059799    1.2621347233
C       -4.7930803830    0.7732113668    4.0322174963
C       -6.1729450294    0.9859042239    2.0754934406
C       -3.7981109251    0.4577746500    1.8240668906
C       -6.0477930448    1.0141377065    3.4665687317
C       -2.7027396075    0.1672812213    0.9032968785
C       -0.5344301927   -0.8381989037    0.1035016750
C       -1.6012822411   -0.6175782986    1.1064087115
C       -0.9013560351    0.9824954460   -2.9645159152
N       -1.2691797064   -1.9827295135    3.2881994670
N       -0.3377571276   -0.3005026493   -1.0828512143
O       -1.1973894950    0.6953257955   -1.5976860328
Cl      -7.4312335131    1.3494854927    4.4780149126
H       -2.7288249375    0.3545978062    3.7228715974
H       -5.2027364150    0.6943091955    0.1867023291
H       -4.6827220626    0.8004726241    5.1101123047
H       -7.1416147348    1.1739990654    1.6273370504
H       -2.9001452422    0.5056849349   -0.1014660248
H        0.2248735301   -1.5604325061    0.3830327658
H       -1.6611154111    1.6539555712   -3.3742035382
H       -0.8919513978    0.0601605437   -3.5540321222
H        0.0776621925    1.4647867761   -3.0420552457
24   

C       -1.5991348536   -1.4130348841    2.2555268564
C       -3.6268552249    0.6896172470    3.1728113926
C       -5.1322617909    0.5678907268    1.2889344638
C       -4.7156455306    0.9246411448    4.0206966552
C       -6.2155478121    0.8044208513    2.1435724030
C       -3.8174139897    0.5104993856    1.7909041406
C       -6.0178715310    0.9845274288    3.5157023169
C       -2.7281872320    0.2210183677    0.8545898188
C       -0.6435335519   -0.9400533464    0.0486616249
C       -1.6954988140   -0.6509689387    1.0481759948
C       -0.7882330314    1.0453816651   -2.9354857922
N       -1.4895807194   -2.0363192108    3.2332357969
N       -0.3925515721   -0.3866127894   -1.1196728625
O       -1.1579381389    0.6991865459   -1.6006925029
Cl      -7.3721612868    1.2766809203    4.5786807127
H       -2.6321800352    0.6612559385    3.6027766854
H       -5.3177565757    0.4207908046    0.2309041028
H       -4.5506786364    1.0609531412    5.0831812419
H       -7.2220871512    0.8447638161    1.7438791631
H       -2.9196162800    0.5711515128   -0.1482332429
H        0.0483628085   -1.7316675504    0.3148026655
H       -1.4819899357    1.7935392113   -3.3290287466
H       -0.8201341013    0.1616274951   -3.5806514495
H        0.2245826364    1.4591389076   -2.9480122210
24   

C       -1.7518903017   -1.4519597247    2.1933338531
C       -3.5937309234    0.8741197810    3.1105011120
C       -5.1726508497    0.4069260850    1.3454396928
C       -4.6544892282    1.0786821582    4.0006075755
C       -6.2292762697    0.6134744030    2.2405873237
C       -3.8387049712    0.5525955059    1.7658020581
C       -5.9805551082    0.9541269740    3.5741054286
C       -2.7520809865    0.2687134559    0.8132435211
C       -0.7571609290   -1.0257605633   -0.0111797196
C       -1.7896336607   -0.6794248021    0.9890873290
C       -0.6707241841    1.1059919472   -2.8953723476
N       -1.6921780675   -2.0864189033    3.1680856719
N       -0.4551402914   -0.4583204861   -1.1602565528
O       -1.1274390151    0.7024059988   -1.6043901584
Cl      -7.3010481467    1.2098793999    4.6877786374
H       -2.5748347591    0.9683269496    3.4697471244
H       -5.3909424804    0.1284957513    0.3206156200
H       -4.4496262654    1.3308636845    5.0345345219
H       -7.2535814898    0.5035583765    1.9041733107
H       -2.9304430532    0.6459114741   -0.1827618272
H       -0.1317638946   -1.8762349709    0.2372134997
H       -1.2939914614    1.9230888235   -3.2692488264
H       -0.7284136098    0.2687173745   -3.5981180688
H        0.3663350251    1.4496757009   -2.8352069273
24   

C       -1.9064545470   -1.5585774899    2.0808453995
C       -3.5779649461    1.0390696192    3.0225238643
C       -5.1808993591    0.2010525089    1.4263857924
C       -4.6077799881    1.2362327386    3.9500051716
C       -6.2077313189    0.3995253117    2.3573965838
C       -3.8562014732    0.5427831302    1.7410110205
C       -5.9319119652    0.9239253730    3.6246643524
C       -2.7725416628    0.2719534532    0.7684737499
C       -0.8528970574   -1.1059750395   -0.0954965965
C       -1.8775702890   -0.7419811384    0.9056471864
C       -0.5605135563    1.1794752331   -2.8450271570
N       -1.9046078861   -2.2349450355    3.0288235660
N       -0.4972877526   -0.5024186348   -1.2101589663
O       -1.0895761419    0.7193035942   -1.6015142887
Cl      -7.2150540681    1.1732670617    4.7825850841
H       -2.5558531113    1.2725829574    3.2994453334
H       -5.4141080080   -0.2211790070    0.4554373670
H       -4.3803654218    1.6287883563    4.9342085236
H       -7.2284537167    0.1405191775    2.1015272033
H       -2.9162738619    0.7251303046   -0.2013492512
H       -0.2861366018   -2.0050608553    0.1201217143
H       -1.1225779976    2.0538204776   -3.1848876482
H       -0.6364366303    0.3945630245   -3.6041585102
H        0.4907039230    1.4583243408   -2.7247652276
24   

C       -2.1254355592   -1.7787413556    1.9040758292
C       -3.6097717509    1.2638004187    2.9019942351
C       -5.1495685352   -0.0083291454    1.5500893830
C       -4.6310385106    1.5135371129    3.8265901444
C       -6.1683166786    0.2432858301    2.4769984827
C       -3.8589542731    0.5002980384    1.7545949253
C       -5.9190986643    1.0069415536    3.6225058068
C       -2.7809228899    0.2383431729    0.7674248840
C       -0.8697146843   -1.1465563269   -0.1158554646
C       -1.9584923745   -0.8398663736    0.8366322714
C       -0.4845341952    1.2011771676   -2.8020512513
N       -2.2379955702   -2.5588347866    2.7613363990
N       -0.4638322778   -0.5048651583   -1.1915559645
O       -1.0908871702    0.6869359808   -1.6165700812
Cl      -7.1914176319    1.3206557025    4.7767142761
H       -2.6165053613    1.6608556463    3.0790603982
H       -5.3598256669   -0.6059865653    0.6702101533
H       -4.4262995926    2.1025343138    4.7129395738
H       -7.1614643793   -0.1577129920    2.3118088049
H       -2.6925991151    0.9817209924   -0.0099484716
H       -0.3055666841   -2.0481227273    0.0962717461
H       -0.9863672724    2.1251763039   -3.1026193403
H       -0.5678610249    0.4728127327   -3.6145551173
H        0.5734452712    1.4155948835   -2.6221530231
24   

C       -2.3063126781   -1.9825936170    1.6969340062
C       -3.6717558120    1.4761750817    2.7343942523
C       -5.0763208709   -0.1945997034    1.7163771697
C       -4.6955006380    1.7836847035    3.6387571372
C       -6.0987420040    0.1147397610    2.6213243077
C       -3.8383306949    0.4617330580    1.7819738871
C       -5.9162887636    1.1028813811    3.5939849152
C       -2.7806753832    0.1955036753    0.7805720432
C       -0.8901397452   -1.1814815344   -0.1501974865
C       -2.0252426290   -0.9344989748    0.7637023620
C       -0.4536917578    1.2974082115   -2.7065791660
N       -2.5170804548   -2.8521918546    2.4422373305
N       -0.4522226638   -0.4806239876   -1.1750465173
O       -1.1127328612    0.6970019065   -1.5916071728
Cl      -7.1909642570    1.4861301892    4.7243305706
H       -2.7365065379    2.0225696307    2.7816070318
H       -5.2405970755   -0.9579873917    0.9639047749
H       -4.5464900838    2.5572018096    4.3830349205
H       -7.0433785959   -0.4140362184    2.5709427461
H       -2.4321765773    1.0721403600    0.2547340576
H       -0.3299633083   -2.0915039244    0.0344537968
H       -0.9050216848    2.2697445226   -2.9228687107
H       -0.5509422569    0.6571380841   -3.5885385327
H        0.6087549607    1.4428808795   -2.4870859831
24   

C       -2.4040599256   -2.0905855396    1.5690700729
C       -3.7329978586    1.6025718672    2.5981898200
C       -4.9901181546   -0.3179667533    1.8742243134
C       -4.7551945323    1.9314184896    3.4966945651
C       -6.0107874809    0.0125297467    2.7735571521
C       -3.8186970429    0.4536530014    1.7981605649
C       -5.9006005759    1.1364966972    3.5973312533
C       -2.7702458919    0.1739658063    0.8026811958
C       -0.9662606256   -1.2431528430   -0.2355170523
C       -2.0825399778   -0.9979280298    0.7024905639
C       -0.3866821413    1.3836336175   -2.6097754918
N       -2.6545761055   -2.9976028183    2.2551704944
N       -0.4946398127   -0.5007032145   -1.2152862419
O       -1.0914592957    0.7353600119   -1.5509494508
Cl      -7.1731992746    1.5466618544    4.7205342328
H       -2.8596604127    2.2416821214    2.5326984142
H       -5.1095470597   -1.1859580892    1.2351588304
H       -4.6640966454    2.8115976807    4.1223910414
H       -6.8989151365   -0.6057361866    2.8329389535
H       -2.3566166060    1.0568516899    0.3384445146
H       -0.4541781176   -2.1915737766   -0.1157117020
H       -0.7796703525    2.3943712851   -2.7507931509
H       -0.5100705691    0.8218867218   -3.5405846417
H        0.6798099831    1.4502098501   -2.3723446917
24   

C       -2.4674505104   -2.1954159353    1.4683328521
C       -3.8028999207    1.6722981116    2.4542650400
C       -4.9153170383   -0.4207628781    2.0429124787
C       -4.8094844172    2.0285666588    3.3595850849
C       -5.9198481295   -0.0618972871    2.9496684332
C       -3.8191535004    0.4288226513    1.8019796723
C       -5.8739382108    1.1625570573    3.6207864206
C       -2.7753754639    0.1255000407    0.8199558773
C       -1.0705514201   -1.3174801459   -0.3452195940
C       -2.1478895431   -1.0738024070    0.6391497175
C       -0.3382553109    1.4421318948   -2.5168286598
N       -2.7180197966   -3.1270495592    2.1207363970
N       -0.5806531474   -0.5442232296   -1.2919587919
O       -1.1077113496    0.7433203426   -1.5381566615
Cl      -7.1273941444    1.6073712896    4.7522891028
H       -2.9935137152    2.3694376934    2.2688559614
H       -5.0068950441   -1.3671526219    1.5225729103
H       -4.7687179631    2.9859248837    3.8658970476
H       -6.7475301241   -0.7374337272    3.1319733700
H       -2.3362518803    1.0043680187    0.3731550893
H       -0.6050008783   -2.2957187288   -0.2951832546
H       -0.6819269764    2.4779515355   -2.5867015798
H       -0.4523116871    0.9636086061   -3.4941423626
H        0.7209920668    1.4404091436   -2.2406453101
24   

C       -2.2733663384   -2.2025438646    1.9976961353
C       -3.9751265891    1.6758228170    2.9373681106
C       -4.7587528948   -0.4140081401    2.0437311949
C       -5.2721268571    1.9787933920    3.3673290773
C       -6.0545338893   -0.1074421114    2.4770083427
C       -3.6820258164    0.4639956177    2.2867020419
C       -6.3232988382    1.0877280184    3.1465558594
C       -2.3100903529    0.2317137599    1.8448447027
C       -0.2624557433   -1.0790282355    1.1797550679
C       -1.6589286615   -0.9563694792    1.6571434247
C        1.3756140146    2.0112717604    0.3903622936
N       -2.7484738324   -3.2341062685    2.2561544074
N        0.5913889792   -0.1690784733    0.7575968303
O        0.2365209577    1.1950063561    0.6634022635
Cl      -7.9409372412    1.4658742068    3.6846557363
H       -3.1855955120    2.3944255029    3.1264779062
H       -4.6279527949   -1.3376238443    1.4949520288
H       -5.4689822166    2.9142076661    3.8780475281
H       -6.8641901077   -0.8020090703    2.2851887905
H       -1.7247146245    1.1367213957    1.8119099458
H        0.1377036955   -2.0870048649    1.1664374901
H        1.0986001239    3.0670591187    0.4575101606
H        1.7503328146    1.8058984299   -0.6168543927
H        2.1712747925    1.8094513221    1.1146118476
24   

C       -2.2782471366   -2.2651927662    1.8152367480
C       -3.9961506936    1.7217359996    2.7601750564
C       -4.7500853089   -0.5027056508    2.2505015989
C       -5.2772663093    2.0542219328    3.2139079935
C       -6.0301121427   -0.1642025100    2.7075639481
C       -3.6928792103    0.4336197520    2.2785337927
C       -6.3060763747    1.1132684722    3.1958312370
C       -2.3293197772    0.1864521292    1.8271843570
C       -0.2975236251   -1.0806368774    1.0395926336
C       -1.6857161834   -0.9904576275    1.5528313242
C        1.4136246199    2.0354501786    0.5651792659
N       -2.7204048544   -3.3251763590    2.0102047218
N        0.5684309149   -0.1497928945    0.6924474584
O        0.2520340591    1.2256114932    0.7470285962
Cl      -7.9050727492    1.5279492736    3.7619993876
H       -3.2268161454    2.4849486558    2.7944501537
H       -4.6440548788   -1.5015433680    1.8547572034
H       -5.4786292786    3.0523359278    3.5851871739
H       -6.8237639912   -0.9017854795    2.6762844298
H       -1.7504789286    1.0933484374    1.7792779991
H        0.0892598411   -2.0874531767    0.9246237209
H        1.1607197188    3.0866404979    0.7295385943
H        1.7966596244    1.9175518943   -0.4528938750
H        2.1943831704    1.7459962907    1.2757316495
24   

C       -2.3531074283   -2.2647336073    1.4858524385
C       -4.0373094315    1.7617564652    2.5824471445
C       -4.7032566264   -0.5445049875    2.4588031237
C       -5.3148299836    2.1102322903    3.0331908496
C       -5.9805343058   -0.1874771995    2.9107331832
C       -3.6934809692    0.4284330712    2.2824798444
C       -6.2995221703    1.1386859877    3.2019287589
C       -2.3348400776    0.1771583629    1.8211768063
C       -0.3013078157   -1.0635512200    1.0022401639
C       -1.7116454066   -0.9874404719    1.4588991893
C        1.5224259834    2.0303929133    0.8201366280
N       -2.8188352358   -3.3327163023    1.4860270398
N        0.6189148832   -0.1357264690    0.8273656901
O        0.3667873636    1.2318323635    1.0732181110
Cl      -7.8947674387    1.5722319442    3.7645486189
H       -3.3050315723    2.5529699119    2.4669006387
H       -4.5754186329   -1.5965051052    2.2663380518
H       -5.5477908930    3.1451325507    3.2553622499
H       -6.7376020138   -0.9528107199    3.0376425543
H       -1.7596485009    1.0851745254    1.7755303622
H        0.0535902557   -2.0602180136    0.7627188576
H        1.2987470299    3.0801712693    1.0297292234
H        1.8242086116    1.9352482540   -0.2274406164
H        2.3499507581    1.7104339383    1.4608115301
24   

C       -2.4824318170   -2.1770120960    1.1737171085
C       -4.1145119903    1.7727754912    2.3875966828
C       -4.6148144859   -0.5605952122    2.6728124839
C       -5.3951954660    2.1051082019    2.8426735585
C       -5.8960279578   -0.2215621763    3.1261275933
C       -3.6926259620    0.4337010917    2.2776639051
C       -6.3001581171    1.1109807680    3.2127174375
C       -2.3392001839    0.1908555698    1.7946307267
C       -0.3269547713   -1.0677018114    0.9458634352
C       -1.7482016734   -0.9634153387    1.3553504108
C        1.5909217710    1.9578490481    1.1246274317
N       -3.0384641869   -3.1878689425    1.0122429206
N        0.6528323648   -0.1863935792    0.9572317269
O        0.4713234290    1.1292440886    1.4378721479
Cl      -7.8985451524    1.5254539751    3.7807558948
H       -3.4449636294    2.5788366151    2.1091853038
H       -4.3805183773   -1.6144634821    2.6784926421
H       -5.6934775898    3.1448635760    2.9102219513
H       -6.5851750372   -1.0040213467    3.4223098442
H       -1.7675645994    1.1008327660    1.7234544280
H       -0.0243049808   -2.0375573921    0.5660207377
H        1.3724280075    2.9936407240    1.3991630475
H        1.8072131059    1.9160566759    0.0523710944
H        2.4721230461    1.6219579073    1.6793731792
24   

C       -2.5851632295   -2.0890484571    1.0446090965
C       -4.2092355068    1.7544030326    2.2265761158
C       -4.5040965444   -0.5452241232    2.8624679702
C       -5.4922900314    2.0505569635    2.7008479191
C       -5.7877706550   -0.2447408264    3.3343404704
C       -3.6928330396    0.4471586397    2.2741271506
C       -6.2962753923    1.0529110496    3.2539988197
C       -2.3362554356    0.2226941760    1.7834328810
C       -0.3847233886   -1.0485566356    0.8207126780
C       -1.7901876614   -0.9211735942    1.2695007613
C        1.6517199159    1.8665402449    1.2812213466
N       -3.2022741950   -3.0590750366    0.8578692596
N        0.6266519244   -0.2076486915    0.8931193340
O        0.4974072908    1.0575496842    1.5080619553
Cl      -7.8975730447    1.4229351357    3.8441133896
H       -3.6148195600    2.5570985678    1.8048435520
H       -4.1562846191   -1.5617429489    2.9930656748
H       -5.8716253446    3.0640045174    2.6407231845
H       -6.3952589486   -1.0264625564    3.7755075085
H       -1.7675644440    1.1348667696    1.6972049790
H       -0.1291678493   -1.9936908243    0.3540926370
H        1.4715125312    2.8798859659    1.6507969022
H        1.8770967195    1.9170466062    0.2111782231
H        2.5134730311    1.4448298102    1.8071759958
24   

C       -2.6698375647   -1.9958176370    0.9641825796
C       -4.2958689366    1.7215019107    2.0808163138
C       -4.3911863389   -0.4900534415    3.0226822231
C       -5.5808266799    1.9845235627    2.5701830657
C       -5.6765063396   -0.2242304493    3.5098469114
C       -3.6882884040    0.4696779680    2.2700833705
C       -6.2858996079    1.0123744045    3.2836436367
C       -2.3200100562    0.2621683884    1.7899872250
C       -0.4412418195   -1.0100359912    0.6954832510
C       -1.8252607721   -0.8645447917    1.1978699391
C        1.7263649291    1.7660706939    1.3752797291
N       -3.3322248000   -2.9347072078    0.7742128060
N        0.5987061010   -0.2085600023    0.7974825872
O        0.5243352601    1.0080220494    1.5120152707
Cl      -7.8896800305    1.3411421560    3.8911880730
H       -3.7727178893    2.4994551970    1.5362177781
H       -3.9453210181   -1.4520754717    3.2474209481
H       -6.0387789793    2.9515316761    2.3977876745
H       -6.2063248533   -0.9827811629    4.0742404306
H       -1.7477576913    1.1739634479    1.7124394010
H       -0.2332493827   -1.9300184021    0.1601675192
H        1.5916773140    2.7560917622    1.8198394607
H        1.9821555982    1.8867324126    0.3177841945
H        2.5498682465    1.2570888983    1.8851000896
24   

C       -2.7297968591   -1.8867781417    0.8732231154
C       -4.3885226903    1.6604321258    1.9415805534
C       -4.2807531528   -0.4013307579    3.1789364435
C       -5.6734154951    1.8945704768    2.4461067332
C       -5.5657329797   -0.1653195644    3.6818461621
C       -3.6862883266    0.4921697844    2.2723346694
C       -6.2764936654    0.9813832753    3.3158171920
C       -2.3051512318    0.3077274377    1.7967008725
C       -0.4901255762   -0.9235332316    0.5594633825
C       -1.8518796346   -0.7833601709    1.1180459170
C        1.7860826919    1.6999695327    1.4585530237
N       -3.4216442290   -2.8015739708    0.6715635763
N        0.5703898401   -0.1542365152    0.6901622816
O        0.5421648384    1.0009164209    1.5035048118
Cl      -7.8801820410    1.2738437055    3.9418921529
H       -3.9396295325    2.3897996590    1.2767563044
H       -3.7454534231   -1.2906337444    3.4930595238
H       -6.2106496845    2.7926716853    2.1644964532
H       -6.0168817702   -0.8756368562    4.3648276438
H       -1.7306393666    1.2207949617    1.7483273445
H       -0.3215834502   -1.8069770722   -0.0465106546
H        1.6935882472    2.6532309482    1.9864271329
H        2.0738315431    1.8980110867    0.4211708308
H        2.5683812952    1.1035655118    1.9376441776
24   

C       -2.8007516249   -1.7605430909    0.7368118819
C       -4.4771097134    1.5474805060    1.8092117307
C       -4.1805235947   -0.2847690089    3.3438705214
C       -5.7661815469    1.7590958874    2.3131948353
C       -5.4695553620   -0.0712255289    3.8466368039
C       -3.6799458227    0.5031366708    2.2969097657
C       -6.2762089531    0.9490819911    3.3327779874
C       -2.2906528192    0.3347038069    1.8132430725
C       -0.5331915640   -0.8457502008    0.4518999864
C       -1.8815513458   -0.7065345451    1.0410199660
C        1.8450862825    1.6040862838    1.5528932220
N       -3.5273041374   -2.6331743349    0.4784781504
N        0.5530371830   -0.1231375610    0.6285452952
O        0.5696560268    0.9631373513    1.5321118061
Cl      -7.8850426808    1.2130129615    3.9583637323
H       -4.0986148126    2.1929961547    1.0246619563
H       -3.5673506335   -1.0755299721    3.7618142788
H       -6.3795915974    2.5581636716    1.9135685052
H       -5.8502375816   -0.7002746627    4.6427885014
H       -1.6935344157    1.2340957725    1.8462948544
H       -0.4017081178   -1.6836202809   -0.2239087191
H        1.7920103604    2.5130755284    2.1585660265
H        2.1512726420    1.8744248705    0.5373709736
H        2.5944107450    0.9335925847    1.9844242853
24   

C       -2.8983910929   -1.5265932860    0.4991227124
C       -4.5765784394    1.3523062939    1.6566587458
C       -4.0787118184   -0.1187921083    3.5019260073
C       -5.8830009853    1.5075974311    2.1355823380
C       -5.3860503356    0.0386792905    3.9777312165
C       -3.6613991638    0.5378197939    2.3353332071
C       -6.2994047159    0.8536989595    3.3002347334
C       -2.2727705683    0.3747913830    1.8349642537
C       -0.5455175822   -0.8084477012    0.4324797037
C       -1.9098598969   -0.6016636496    0.9640328724
C        1.9172203693    1.5270361083    1.5970662770
N       -3.6811728118   -2.2930061645    0.1041834204
N        0.5710460097   -0.1460655924    0.6519708234
O        0.6060066811    0.9684491478    1.5184883486
Cl      -7.9290790672    1.0498666104    3.8961269493
H       -4.2729829482    1.8633038416    0.7498518179
H       -3.3858110495   -0.7580646340    4.0374661193
H       -6.5840338608    2.1375933806    1.6006915295
H       -5.6999603395   -0.4761514563    4.8781975548
H       -1.5686880969    1.0980589811    2.2169088148
H       -0.4341521759   -1.6410667853   -0.2533973507
H        1.9124637789    2.3869561055    2.2726895182
H        2.2466321470    1.8568488501    0.6069361769
H        2.6223973162    0.7817973610    1.9778269234
24   

C       -2.9617242675   -1.2820611775    0.2518505328
C       -4.6671477764    1.1338425201    1.5434660472
C       -3.9880707729    0.0947509093    3.6117530476
C       -5.9770468514    1.2348939185    2.0267905731
C       -5.2996702961    0.1975077818    4.0909937476
C       -3.6519687322    0.5852748686    2.3401144060
C       -6.3043063568    0.7732341298    3.3060175462
C       -2.2745298067    0.4163310155    1.8226651801
C       -0.5624650106   -0.7619182497    0.4047592877
C       -1.9398718424   -0.4912049836    0.8676235329
C        1.9235933785    1.4811343185    1.6919002194
N       -3.7735513698   -1.9347665396   -0.2687793056
N        0.5676236675   -0.1470454554    0.6840987198
O        0.5932266616    0.9934849199    1.5177948758
Cl      -7.9385633059    0.9027626062    3.9075459803
H       -4.4371116894    1.4832555710    0.5430075799
H       -3.2279774335   -0.3690927669    4.2302272908
H       -6.7505357526    1.6688939442    1.4040291052
H       -5.5467608139   -0.1765790623    5.0776222228
H       -1.5030886883    0.8321815254    2.4539468751
H       -0.4555656763   -1.5887550336   -0.2887696822
H        1.9295529233    2.2803151719    2.4383398331
H        2.3044787911    1.8768119581    0.7455169648
H        2.5821476771    0.6757933446    2.0322968146
24   

C       -2.9913810823   -1.1586972807    0.0725228002
C       -4.7464151460    0.9702639940    1.4980092552
C       -3.9207629511    0.2964010866    3.6637401211
C       -6.0380595101    1.0758141563    2.0270538154
C       -5.2149282956    0.4044712960    4.1870412340
C       -3.6664225934    0.5959790239    2.3136018339
C       -6.2838755404    0.7979060023    3.3754528952
C       -2.3050202075    0.4131539902    1.7825601359
C       -0.5940808359   -0.6712499027    0.2888029131
C       -1.9741429113   -0.4198921491    0.7565050256
C        1.9152450712    1.3973881463    1.8036991177
N       -3.8007018237   -1.7625864353   -0.5076169208
N        0.5415175257   -0.0973997620    0.6275241530
O        0.5760621707    0.9736793753    1.5484874287
Cl      -7.8967572621    0.9304706071    4.0315198048
H       -4.5853399926    1.1829680393    0.4468707099
H       -3.1115264270   -0.0254908672    4.3094630362
H       -6.8607836998    1.3703154900    1.3859911072
H       -5.3981582503    0.1760277469    5.2304491326
H       -1.5242476909    0.7475868364    2.4493857572
H       -0.4890828782   -1.4429016692   -0.4659512587
H        1.9222978835    2.1334231081    2.6124656534
H        2.3414195215    1.8535326060    0.9050729813
H        2.5345263905    0.5441841211    2.0982079875
24   

C       -2.9770078407   -1.1003986917   -0.0854594211
C       -4.8122865978    0.7848957156    1.4792181621
C       -3.8572551228    0.4598170298    3.6730562081
C       -6.0806844689    0.9158684636    2.0567958002
C       -5.1291051395    0.5930523298    4.2427307649
C       -3.6781661000    0.5576892843    2.2793291669
C       -6.2513771274    0.8217260107    3.4411491114
C       -2.3295670035    0.3707284678    1.7380345428
C       -0.5976771819   -0.5712988679    0.1708037828
C       -1.9841849656   -0.3786066222    0.6501094653
C        1.8973581435    1.3232072338    1.9184098432
N       -3.7658207069   -1.6876144295   -0.7094418899
N        0.5316993787   -0.0182475587    0.5619060577
O        0.5583883853    0.9665889633    1.5746035012
Cl      -7.8364482091    0.9845977110    4.1555730494
H       -4.7214401749    0.8750062695    0.4027973724
H       -3.0072028579    0.2716764790    4.3191925674
H       -6.9439763993    1.0911405304    1.4253878461
H       -5.2526365121    0.5142257031    5.3165215478
H       -1.5479825504    0.6771303674    2.4163651135
H       -0.4794237945   -1.2764655691   -0.6446467288
H        1.8920654207    1.9806657037    2.7922737336
H        2.3714351188    1.8470593604    1.0829634986
H        2.4810264758    0.4278305093    2.1548717211
24   

C       -2.9449408443   -1.0331586896   -0.2517152909
C       -4.8735734244    0.5957929684    1.4801078025
C       -3.7998424452    0.6202071600    3.6427355037
C       -6.1162138742    0.7589146039    2.1041531484
C       -5.0468107436    0.7847392013    4.2568403250
C       -3.6901476515    0.5129796329    2.2400943754
C       -6.2157132671    0.8519727807    3.4947682383
C       -2.3529707718    0.3251781605    1.6844087405
C       -0.5895821295   -0.4549116858    0.0608405556
C       -1.9843552283   -0.3311422658    0.5425998709
C        1.8802079806    1.2422476369    2.0311865656
N       -3.7035760088   -1.6059808975   -0.9247567002
N        0.5306883387    0.0743587481    0.5082030057
O        0.5458479163    0.9566391616    1.6113769796
Cl      -7.7698861146    1.0537779890    4.2649679709
H       -4.8581508261    0.5605601495    0.3981764193
H       -2.9147757153    0.5652115065    4.2665487933
H       -7.0158802078    0.8176478034    1.5025466419
H       -5.1136484652    0.8583209600    5.3360366372
H       -1.5724625497    0.6215937020    2.3669352680
H       -0.4532318022   -1.0826772063   -0.8130139485
H        1.8602122309    1.8130703746    2.9637643884
H        2.3954346864    1.8304438392    1.2659095535
H        2.4338175384    0.3129315458    2.1991579599
24   

C       -2.9245093522   -0.9226935704   -0.4107197731
C       -4.9311168441    0.3851079007    1.5176711626
C       -3.7690450264    0.7738806212    3.5951830499
C       -6.1519238378    0.5749412307    2.1768506316
C       -4.9945814352    0.9637749418    4.2435002939
C       -3.7078099340    0.4632814722    2.2183410361
C       -6.1969250846    0.8611094719    3.5425145702
C       -2.3785682327    0.2853814995    1.6476461740
C       -0.5906080600   -0.3393184294   -0.0166855684
C       -1.9932225468   -0.2726569041    0.4582696633
C        1.8705497272    1.1283950807    2.1417822188
N       -3.6482214017   -1.4592606640   -1.1491897698
N        0.5255947670    0.1450495996    0.4893675140
O        0.5383803343    0.9072033259    1.6785424154
Cl      -7.7249406586    1.0949612559    4.3548304874
H       -4.9871867975    0.2043991578    0.4541071244
H       -2.8598849521    0.8604862694    4.1795256110
H       -7.0789631293    0.5049961370    1.6195271398
H       -5.0175194095    1.1920368910    5.3027217854
H       -1.5997073388    0.5790213046    2.3313462226
H       -0.4410413144   -0.8782093468   -0.9460210730
H        1.8453658812    1.6131666410    3.1217505078
H        2.4085628111    1.7732963233    1.4405439710
H        2.4045644895    0.1772251127    2.2331881426
24   

C       -2.9225421074   -0.6403592766   -0.5814977873
C       -4.9507884515    0.1259394529    1.6127475454
C       -3.7594659596    0.9528811709    3.5348599623
C       -6.1598532520    0.3241800113    2.2912327385
C       -4.9729374637    1.1472142982    4.2037543245
C       -3.7113908060    0.4357510970    2.2202635520
C       -6.1845005505    0.8346828970    3.5889719139
C       -2.3866524486    0.2816717306    1.6344289465
C       -0.5832636708   -0.2680834482   -0.0392200887
C       -1.9963171791   -0.1813317332    0.4059734288
C        1.9221691925    0.8717549625    2.2748412722
N       -3.6274672230   -1.0267293679   -1.4248256790
N        0.5473854404    0.0612093020    0.5535439786
O        0.5830993399    0.6177307672    1.8510136031
Cl      -7.6984786072    1.0773796201    4.4246158037
H       -5.0484381253   -0.2715583632    0.6155931257
H       -2.8449212952    1.2118558548    4.0565143715
H       -7.0952968938    0.0778150763    1.8020875324
H       -4.9784041173    1.5451013247    5.2118465931
H       -1.6128979272    0.5903868681    2.3151609170
H       -0.4367194204   -0.6737074954   -1.0345013266
H        1.9165990877    1.2860416973    3.2869431187
H        2.4007725493    1.5893432665    1.6014029256
H        2.5003807750   -0.0573930883    2.2763649754
