14   

C       -0.3065306337    0.8554373303   -2.0520963526
C       -0.4546071975   -0.1050800792   -0.9694483587
C       -1.0805731734    0.5379052777   -3.1382738581
C       -1.3506898695   -1.1149877132   -1.2687436784
C       -1.7304182729   -2.2922533309   -0.4666153984
C       -1.3074846850   -2.3876959650    0.9915992583
O       -2.3294401386   -3.2374974564   -0.9720184232
S       -2.0199811220   -0.9297009449   -2.8907033979
H        0.3465467401    1.7205633314   -2.0057658902
H        0.0920309711   -0.0322518927   -0.0350983418
H       -1.1170364501    1.1169935615   -4.0534811513
H       -1.7454134308   -1.5604744933    1.5561893241
H       -0.2181405111   -2.3424379477    1.0664928773
H       -1.6536962029   -3.3326113324    1.4199199493
14   

C       -0.2945937599    0.8543191949   -2.0632499789
C       -0.3905704092   -0.1379795954   -1.0036018180
C       -1.1699655851    0.6058410538   -3.0889714001
C       -1.3587959404   -1.0927946966   -1.2525436759
C       -1.6833273090   -2.3078098064   -0.4759223624
C       -1.3075962562   -2.3896581261    0.9961539086
O       -2.1351530253   -3.3085596990   -1.0232198911
S       -2.1482683385   -0.8300755513   -2.8075848681
H        0.3985165970    1.6888424108   -2.0469922257
H        0.2474876610   -0.1298566613   -0.1262445480
H       -1.2565288840    1.2161986234   -3.9801741422
H       -1.8726727847   -1.6426938370    1.5597702786
H       -0.2378411369   -2.2061346351    1.1214726277
H       -1.5441900088   -3.3831954230    1.3874197995
14   

C       -0.2472222712    0.8028289775   -2.0891059889
C       -0.3015569375   -0.2145016959   -1.0503401806
C       -1.2327986037    0.6397997970   -3.0286315638
C       -1.3545341552   -1.0924862340   -1.2209316686
C       -1.6491226625   -2.3311886240   -0.4580830067
C       -1.3277731494   -2.4003890667    1.0281584540
O       -1.9728501424   -3.3657276587   -1.0291846102
S       -2.2696106692   -0.7408150259   -2.6857807056
H        0.4977797679    1.5908162440   -2.1228361805
H        0.4284587282   -0.2814233514   -0.2508169076
H       -1.3653510253    1.2802511490   -3.8926453000
H       -2.0968340794   -1.8641063634    1.5901904698
H       -0.3539998709   -1.9502094495    1.2322493189
H       -1.3088192447   -3.4428852457    1.3581489524
14   

C       -0.2100258209    0.7893468290   -2.1150339642
C       -0.2200324475   -0.2596222585   -1.1067707268
C       -1.2785803588    0.6981226198   -2.9702476459
C       -1.3235462433   -1.0812301735   -1.2088630145
C       -1.5776250923   -2.3475233285   -0.4612913751
C       -1.3628513045   -2.3849972875    1.0447974531
O       -1.7322831720   -3.4089119416   -1.0488497906
S       -2.3421392100   -0.6494681431   -2.5795558746
H        0.5642386175    1.5455839485   -2.1905004882
H        0.5748992997   -0.3935269202   -0.3806359378
H       -1.4553182472    1.3713441343   -3.8007918727
H       -2.2710779184   -2.0419011579    1.5470776707
H       -0.5320475493   -1.7361168315    1.3306696969
H       -1.1416632976   -3.4064522235    1.3665173093
14   

C       -0.6218763084    0.8800370334   -2.0639169365
C       -1.1450669118   -0.0649323251   -1.0889284289
C       -0.4754495832    0.3164816960   -3.3061323426
C       -1.4151212492   -1.2964541590   -1.6403818861
C       -1.8168223781   -2.5434715178   -0.9060892980
C       -3.1129621517   -2.5507451901   -0.1109910062
O       -1.0245455112   -3.4563687255   -0.7369375789
S       -0.9753188783   -1.3714506734   -3.3435446394
H       -0.3630957104    1.9071418316   -1.8290859031
H       -1.2772353802    0.1702209768   -0.0378332966
H       -0.0905887954    0.8407338480   -4.1729224724
H       -3.9398082993   -2.8261131683   -0.7707805132
H       -3.3059603520   -1.5594635962    0.3062999121
H       -3.0493392524   -3.2757668332    0.7050714124
14   

C       -0.4983395597    0.8467218412   -2.0643704992
C       -0.9173150948   -0.0855629361   -1.0284651517
C       -0.5620642662    0.2927184094   -3.3180230811
C       -1.2879360180   -1.3051362919   -1.5376537288
C       -1.7648391147   -2.5112642233   -0.7692471844
C       -3.2428929102   -2.6513326681   -0.4461067816
O       -0.9797236160   -3.3504274001   -0.3625347335
S       -1.1304110271   -1.3736028046   -3.2894529558
H       -0.1687005739    1.8608376927   -1.8643954669
H       -0.9267291960    0.1539121333    0.0300359022
H       -0.2906605927    0.8124132976   -4.2293984809
H       -3.8078504309   -2.7938258294   -1.3708344129
H       -3.5977937739   -1.7471103901    0.0548875507
H       -3.4046346760   -3.5115196868    0.2095558094
14   

C       -0.4076997933    0.8153760014   -2.0198420082
C       -0.7440421611   -0.0978614223   -0.9381253719
C       -0.6852298677    0.2833002714   -3.2532317421
C       -1.2369854488   -1.2979385216   -1.3913625990
C       -1.7865034570   -2.4130662445   -0.5485148739
C       -3.2533799182   -2.7945180085   -0.6764112827
O       -1.0475526772   -3.1403789562    0.0954182174
S       -1.3540709605   -1.3417976457   -3.1490848616
H        0.0113941221    1.8039695003   -1.8643982563
H       -0.6261024368    0.1430647166    0.1137091417
H       -0.5119304073    0.7962810423   -4.1919611667
H       -3.5479609630   -2.8230643864   -1.7280633830
H       -3.8664519015   -2.0559401504   -0.1534823671
H       -3.4252108177   -3.7789065165   -0.2321814894
14   

C       -0.3298386621    0.7854084400   -2.0242237232
C       -0.6382617849   -0.1261216702   -0.9330614708
C       -0.7585385182    0.3075802655   -3.2360428327
C       -1.2578311543   -1.2794122889   -1.3598061234
C       -1.8276026026   -2.3393563969   -0.4745410517
C       -3.2383730592   -2.8553918597   -0.7184944853
O       -1.1176405569   -2.9397640343    0.3196301895
S       -1.5396897919   -1.2640768372   -3.1004869888
H        0.1763873519    1.7354901023   -1.8893149826
H       -0.4155498367    0.0813095513    0.1091190080
H       -0.6320823903    0.8302432838   -4.1769099861
H       -3.3778013428   -3.1048631765   -1.7727821658
H       -3.9603845576   -2.0863433616   -0.4317524453
H       -3.4178278900   -3.7512948161   -0.1174761864
14   

C       -0.2647363915    0.7737655726   -2.0497029529
C       -0.5570472603   -0.1356684096   -0.9524829017
C       -0.8239068090    0.3582315173   -3.2309749458
C       -1.3000820959   -1.2283284570   -1.3470606837
C       -1.8651163358   -2.2571847922   -0.4338124941
C       -3.2148801961   -2.8930888478   -0.7337732500
O       -1.1824790589   -2.7286443510    0.4671185346
S       -1.7145775892   -1.1505842405   -3.0597502865
H        0.3239725976    1.6784487377   -1.9398118669
H       -0.2362115084    0.0278261114    0.0719894342
H       -0.7308601405    0.8912601285   -4.1699182429
H       -3.2311988184   -3.2895976165   -1.7516503071
H       -4.0030490187   -2.1436202716   -0.6237846680
H       -3.4051862882   -3.7117992637   -0.0340348670
14   

C       -0.2137801027    0.7509621513   -2.0810832455
C       -0.5107853899   -0.1501515131   -0.9782809578
C       -0.8789225192    0.4034494047   -3.2290759030
C       -1.3729220135   -1.1669913658   -1.3360935539
C       -1.9360842633   -2.1781790101   -0.4091852739
C       -3.2261817731   -2.9092809299   -0.7516979032
O       -1.3019172712   -2.5312447509    0.5789154469
S       -1.8816944627   -1.0283632148   -3.0194481534
H        0.4548104653    1.6013918703   -1.9983573464
H       -0.1073053195   -0.0367904002    0.0236768690
H       -0.8003989928    0.9431993014   -4.1654966480
H       -3.1512366320   -3.3661794452   -1.7414174816
H       -4.0607689353   -2.2033853982   -0.7391245529
H       -3.4159562379   -3.6951201122   -0.0150924118
14   

C       -0.1762700958    0.7332399822   -2.1015396337
C       -0.4698753351   -0.1626618289   -0.9935717124
C       -0.9431491130    0.4622744570   -3.2059901635
C       -1.4424016995   -1.0931795458   -1.3023089839
C       -1.9927736353   -2.1044403436   -0.3714735702
C       -3.2305912389   -2.9086168406   -0.7412822046
O       -1.4132207524   -2.3549658378    0.6803912698
S       -2.0445535309   -0.8868006036   -2.9474771200
H        0.5641987000    1.5247420357   -2.0534928366
H        0.0166229910   -0.1090514080   -0.0239246070
H       -0.8834832568    1.0116763365   -4.1381776839
H       -3.0722081020   -3.4250508407   -1.6913216215
H       -4.0907946304   -2.2398723890   -0.8292048920
H       -3.4373397610   -3.6519066808    0.0339097890
14   

C       -0.1398064860    0.6900775172   -2.1089647302
C       -0.4399870213   -0.2006549647   -0.9985703237
C       -0.9905631587    0.5043684879   -3.1687926480
C       -1.5113528857   -1.0332458531   -1.2567245076
C       -2.0595452104   -2.0468075813   -0.3281696986
C       -3.2471370550   -2.9084355452   -0.7313760772
O       -1.5579644205   -2.2042578899    0.7805844471
S       -2.1843062566   -0.7532486128   -2.8630564487
H        0.6659968594    1.4164066690   -2.0948131322
H        0.1140035080   -0.2147923265   -0.0643689554
H       -0.9405858914    1.0649881310   -4.0948499742
H       -3.0058460646   -3.4743285934   -1.6348286315
H       -4.1173845185   -2.2745632930   -0.9200969652
H       -3.4878402081   -3.6106351394    0.0718244338
14   

C       -0.1157307476    0.6562520732   -2.1057758422
C       -0.4080271488   -0.2373615760   -0.9956183574
C       -1.0561923248    0.5735180548   -3.1007630520
C       -1.5708550505   -0.9584949081   -1.1821617379
C       -2.1055814874   -1.9836147615   -0.2573902270
C       -3.2543757797   -2.8878030062   -0.6798318277
O       -1.6743232407   -2.0663163370    0.8881755346
S       -2.3297330859   -0.5843023810   -2.7300373003
H        0.7497292844    1.3096911517   -2.1385537456
H        0.2182667034   -0.3350431128   -0.1135830171
H       -1.0268322848    1.1532653642   -4.0158622210
H       -2.9307238952   -3.5344097783   -1.4996192975
H       -4.1060098894   -2.2853836094   -1.0056250472
H       -3.5661076976   -3.5121777207    0.1622634654
14   

C       -0.0996135645    0.6145233898   -2.1190523472
C       -0.3999016519   -0.2788660712   -1.0108762343
C       -1.1010777520    0.6344607969   -3.0559000838
C       -1.6328272759   -0.8873203105   -1.1334554190
C       -2.1730206403   -1.9205873837   -0.2173056566
C       -3.2578528734   -2.8799940969   -0.6852504277
O       -1.8476585908   -1.9289745745    0.9647551831
S       -2.4445020261   -0.4200274222   -2.6283539308
H        0.8151135722    1.1932176771   -2.1930474823
H        0.2723315098   -0.4587551087   -0.1770250341
H       -1.0771730855    1.2310596850   -3.9602664219
H       -2.8485606857   -3.5525519692   -1.4436227453
H       -4.0987370303   -2.3245641421   -1.1075006759
H       -3.6181531325   -3.4751906807    0.1585906759
14   

C       -0.0774657495    0.5527504726   -2.1178229829
C       -0.3906852830   -0.3332301495   -1.0072601032
C       -1.1241963206    0.6745805079   -2.9954605930
C       -1.6771755629   -0.8264753962   -1.0631013315
C       -2.2433077816   -1.8538892055   -0.1488016513
C       -3.2383195350   -2.8811599958   -0.6692458991
O       -2.0537401969   -1.7811944517    1.0589874196
S       -2.5267633534   -0.2695643905   -2.5050476041
H        0.8778807696    1.0530974743   -2.2364472593
H        0.3122278302   -0.5907271737   -0.2206111641
H       -1.1003537605    1.2836196549   -3.8915042307
H       -2.7338418991   -3.5569629715   -1.3648065975
H       -4.0653043126   -2.3844086034   -1.1819818874
H       -3.6404758777   -3.4658021749    0.1629795542
14   

C       -0.0683266497    0.4832513586   -2.1270143943
C       -0.3906636079   -0.4092954432   -1.0242410757
C       -1.1523373243    0.7269080369   -2.9308624454
C       -1.7159660733   -0.7826698754   -1.0095420520
C       -2.3234443515   -1.7980050239   -0.0974803990
C       -3.2065903376   -2.8987846628   -0.6670247023
O       -2.2862138867   -1.6511708156    1.1159005964
S       -2.6008726190   -0.1054814765   -2.3762793149
H        0.9189235136    0.9012554864   -2.2935374110
H        0.3351651432   -0.7554569623   -0.2947798984
H       -1.1299481117    1.3616956455   -3.8088955664
H       -2.5874674151   -3.6120839553   -1.2173412104
H       -3.9562197573   -2.4778499560   -1.3408786595
H       -3.7174983510   -3.4253144685    0.1440301999
14   

C       -0.0589658832    0.4168529578   -2.1765830892
C       -0.3938758657   -0.4943642497   -1.0927200614
C       -1.1637794858    0.7963230522   -2.8954511458
C       -1.7418161475   -0.7495755374   -1.0120213468
C       -2.4115914334   -1.7288531260   -0.0910236035
C       -3.1378811716   -2.9301613437   -0.6766219288
O       -2.5471705920   -1.4862142054    1.0974299167
S       -2.6463235155    0.0722040456   -2.2815641373
H        0.9503259633    0.7527125593   -2.3902368215
H        0.3403605450   -0.9321068316   -0.4236985945
H       -1.1375444358    1.4689456559   -3.7447363899
H       -2.4053179888   -3.6764486671   -0.9947634461
H       -3.7375008710   -2.6281066752   -1.5384740765
H       -3.7953476292   -3.3745521248    0.0758049869
14   

C       -0.6053004411    1.0091823782   -2.0888308797
C       -1.1464987589    0.3438660674   -0.9131341308
C       -0.5010395751    0.1618075903   -3.1629511620
C       -1.4240385114   -0.9810423145   -1.1402192483
C       -2.0007126556   -1.9753138371   -0.1647514271
C       -1.0666123625   -2.7430508755    0.7554230853
O       -3.2050976050   -2.1360297022   -0.0667222928
S       -1.0529102572   -1.4682630450   -2.7904093009
H       -0.3229508131    2.0564840980   -2.1116328397
H       -1.3201554780    0.8423464854    0.0351394994
H       -0.1268558200    0.4543606290   -4.1369872318
H       -0.4168146229   -2.0438376655    1.2878056191
H       -0.4505964893   -3.4257859675    0.1646598510
H       -1.6451539467   -3.3195622079    1.4826725922
14   

C       -0.4872179260    0.9742441235   -2.0568134697
C       -0.9474172067    0.2149028808   -0.9040266189
C       -0.5329548762    0.2392574345   -3.2143258390
C       -1.2838391138   -1.0800864315   -1.2256654796
C       -1.9347339465   -2.0913443136   -0.3261043314
C       -1.2142948129   -2.5311231814    0.9387197663
O       -3.1124617685   -2.3836764894   -0.4572348947
S       -1.1224005678   -1.3986979415   -2.9496849441
H       -0.1610944491    2.0077725135   -2.0066176057
H       -1.0424776323    0.6359726075    0.0915787243
H       -0.2463469602    0.6165607279   -4.1888931968
H       -0.6273495485   -1.7044147783    1.3462309965
H       -0.5434059471   -3.3610507991    0.7021815054
H       -1.9387081597   -2.8590581867    1.6892851250
14   

C       -0.4235524474    0.9296505521   -2.0361282510
C       -0.8243100039    0.1375057862   -0.8833355230
C       -0.6093461160    0.2582773361   -3.2177626443
C       -1.2573627321   -1.1247078004   -1.2333179558
C       -1.8960043232   -2.1382527483   -0.3434972628
C       -1.2763439889   -2.4417475585    1.0128757216
O       -3.0198234132   -2.5627668352   -0.5726440856
S       -1.2617479366   -1.3594957653   -2.9790568704
H       -0.0384408705    1.9416214263   -1.9677234464
H       -0.8127561636    0.5184344882    0.1324786890
H       -0.3882655493    0.6700366252   -4.1954358373
H       -0.8263375409   -1.5426016872    1.4395308099
H       -0.5022762439   -3.2042049988    0.8930685863
H       -2.0413470792   -2.8150812068    1.6993086877
14   

C       -0.3898064015    0.8965129116   -2.0364335604
C       -0.7374800805    0.0719919908   -0.8891600050
C       -0.6983400085    0.2885221730   -3.2263082775
C       -1.2639674749   -1.1519888433   -1.2544037807
C       -1.8611434866   -2.1918134354   -0.3796199062
C       -1.3067324422   -2.4141196495    1.0204432355
O       -2.9082092892   -2.7510237967   -0.6832084283
S       -1.4083260141   -1.3068579478   -3.0042599111
H        0.0496352134    1.8853017445   -1.9572034479
H       -0.6173439550    0.4058903437    0.1358853551
H       -0.5326506488    0.7329485833   -4.2006285644
H       -1.1010700768   -1.4591301910    1.5085488363
H       -0.3809060984   -2.9916921586    0.9557175058
H       -2.0298606184   -2.9689064883    1.6248838312
14   

C       -0.3436845204    0.8791040723   -2.0286588302
C       -0.6420081041    0.0209014014   -0.8923394750
C       -0.8081151105    0.3587221907   -3.2092220965
C       -1.3014107853   -1.1379791521   -1.2575414775
C       -1.8598170092   -2.1968289221   -0.3906537969
C       -1.3225093345   -2.3826299286    1.0205680004
O       -2.8383137072   -2.8506162734   -0.7374369261
S       -1.6141088631   -1.1909857719   -2.9923639610
H        0.1773808104    1.8272922158   -1.9478735164
H       -0.3864376059    0.2817703250    0.1292281192
H       -0.7001152094    0.8402466710   -4.1739722433
H       -1.4111049363   -1.4491827072    1.5815033181
H       -0.2718553919   -2.6810283314    0.9756555493
H       -1.8907185055   -3.1613821189    1.5371608388
14   

C       -0.3115406646    0.8590371639   -2.0500502328
C       -0.5657069667   -0.0318939899   -0.9283241354
C       -0.8765633956    0.4042571878   -3.2134991264
C       -1.3066916913   -1.1437342377   -1.2849035480
C       -1.8115499548   -2.2397516592   -0.4379145525
C       -1.3208788022   -2.3805183183    0.9951942747
O       -2.6770608332   -3.0098379120   -0.8449375615
S       -1.7315010123   -1.1188622236   -2.9972296176
H        0.2557221617    1.7805599954   -1.9718927393
H       -0.2147613363    0.1694593383    0.0783640163
H       -0.8124649398    0.9173276835   -4.1658269877
H       -1.5464857635   -1.4703825325    1.5565170559
H       -0.2412790903   -2.5516764176    0.9988516830
H       -1.8163830416   -3.2274333793    1.4783012290
14   

C       -0.3066924296    0.8648430590   -2.0602561083
C       -0.5085707788   -0.0624512893   -0.9575424371
C       -0.9773836170    0.4801447158   -3.1923659606
C       -1.3294720944   -1.1237153871   -1.2930204723
C       -1.7724029326   -2.2610624425   -0.4683687259
C       -1.3152675677   -2.3771666651    0.9779159655
O       -2.5113566758   -3.1274156332   -0.9287933249
S       -1.8767143932   -1.0158055534   -2.9672974758
H        0.3050277752    1.7583412999   -1.9927381271
H       -0.0581449701    0.0739021657    0.0200627985
H       -0.9631960923    1.0275634511   -4.1274654555
H       -1.6493068929   -1.5027443426    1.5422325288
H       -0.2247665980   -2.4400411714    1.0167036824
H       -1.7394380237   -3.2768276349    1.4327451935
