35

C     -1.25327   -2.96215    5.75747
C     -0.90834   -4.09610    5.03139
C     -1.57201   -1.75384    5.12176
C     -1.22551   -2.86023    2.93505
C     -0.89109   -4.04473    3.63266
C     -1.54624   -1.74011    3.71867
C     -1.92588   -0.52908    5.98634
C     -0.27493   -4.05341   -1.21450
C      0.98464   -4.93214   -1.15235
C      1.63904   -2.70207   -0.86045
C      0.15972   -2.76310   -0.49432
C      1.43758   -5.21544    2.51417
C     -1.26654   -2.81235    1.42690
O     -0.92987    0.14179    6.34808
O     -3.15014   -0.41227    6.22948
O     -0.36700   -6.64326    3.81269
O     -0.97426   -5.74589    1.51729
O      2.10174   -4.05664   -0.87953
O      0.07776   -2.84347    0.92355
S     -0.31217   -5.54559    2.82529
Cl    -1.94131   -0.20470    2.92703
H     -1.27408   -2.99755    6.84349
H     -0.66078   -5.02717    5.53038
H     -0.54265   -3.81300   -2.24958
H     -1.12639   -4.53860   -0.73747
H      0.91338   -5.66202   -0.34230
H      1.16986   -5.46306   -2.09445
H      1.76756   -2.23590   -1.85008
H      2.21952   -2.14581   -0.12040
H     -0.39225   -1.88034   -0.84871
H      1.84582   -6.12590    2.06944
H      1.51997   -4.36863    1.83517
H      1.91282   -5.01045    3.47478
H     -1.82716   -3.67164    1.05288
H     -1.75478   -1.89397    1.09205
