35

C     -0.20817    0.09549   -0.18525
C     -1.06402    0.55890   -0.91310
C      1.94906   -1.05465    0.13900
C      0.66112   -0.40176    2.06727
C      0.80077   -0.44820    0.67265
C      2.94182   -1.59535    0.96041
C      1.63814   -0.92764    2.91632
C      2.79368   -1.52426    2.36493
C      4.58210   -1.13147    4.16829
C     -2.09634    1.11649   -1.79012
C      5.35326   -1.26243    0.19482
C      1.72413    0.62436    4.92818
C      3.84054   -2.12248    3.29123
C      4.14927   -2.21739    0.28273
C      1.41187   -0.79265    4.41114
O      4.75393   -1.24463    5.36602
O      5.08370   -0.08254    3.46249
H      2.05915   -1.10883   -0.94075
H     -0.23044    0.05199    2.49270
H     -2.46489    2.07267   -1.40322
H     -1.70307    1.28841   -2.79764
H     -2.95071    0.43560   -1.87338
H      5.08501   -0.36227   -0.36802
H      6.19454   -1.74581   -0.31418
H      5.68464   -0.93974    1.18489
H      2.76188    0.90208    4.72492
H      1.56256    0.68566    6.00932
H      1.08278    1.36574    4.44097
H      4.60826   -2.64219    2.71401
H      3.40248   -2.85911    3.96763
H      4.44780   -3.14362    0.78578
H      3.85995   -2.51503   -0.73034
H      0.36235   -1.02174    4.62828
H      2.00499   -1.51671    4.97400
H      5.55980    0.47551    4.10737
