35

C     -0.77504    0.10854   -0.10693
C     -1.73951    0.61915   -0.64181
C      1.34021   -1.14582   -0.23651
C      0.51650   -0.43635    1.91985
C      0.36170   -0.49134    0.52363
C      2.45623   -1.73549    0.36567
C      1.61636   -1.01691    2.55055
C      2.59474   -1.67452    1.76737
C      4.88249   -1.30392    2.85188
C     -2.90038    1.23745   -1.28654
C      4.69205   -1.45075   -0.82132
C      0.68828   -0.17389    4.82005
C      3.78908   -2.29851    2.45069
C      3.49312   -2.37432   -0.53888
C      1.77384   -0.94182    4.06098
O      4.86421   -0.11480    2.65291
O      5.95344   -1.87283    3.48829
H      1.22605   -1.19026   -1.31626
H     -0.24347    0.07397    2.49964
H     -3.12409    2.21183   -0.83898
H     -2.71907    1.39024   -2.35569
H     -3.79042    0.60701   -1.18213
H      4.35589   -0.52525   -1.29917
H      5.41049   -1.94027   -1.48786
H      5.21360   -1.16532    0.09593
H      0.63446    0.87077    4.49781
H      0.91085   -0.17853    5.89170
H     -0.30107   -0.62296    4.68493
H      4.25733   -3.05262    1.81142
H      3.48158   -2.82836    3.36050
H      3.84918   -3.32410   -0.12371
H      3.01373   -2.63158   -1.48891
H      1.82028   -1.96256    4.46532
H      2.74337   -0.48430    4.28777
H      5.81831   -2.83213    3.57378
