23

C     -2.08407    4.02039    1.91062
C     -0.81420    4.20237    2.46991
C     -2.64462    2.74035    1.83474
C     -0.09447    3.10441    2.94831
C     -1.93464    1.63458    2.30975
C     -0.66310    1.83031    2.85729
C      0.34771   -0.64545    0.93940
C      2.20687    0.83989    1.58676
N      1.16010   -0.08932    2.02767
O      1.27952    0.86874    4.36645
O     -0.65203   -0.67496    3.69341
S      0.29004    0.40384    3.39390
H     -2.64153    4.87789    1.54329
H     -0.38757    5.19902    2.54242
H     -3.63728    2.60325    1.41474
H      0.88068    3.22850    3.40843
H     -2.36276    0.63759    2.28279
H     -0.36840   -1.35775    1.34824
H      1.01811   -1.17823    0.25941
H     -0.18423    0.13295    0.37148
H      2.78702    1.16875    2.44852
H      1.79767    1.71407    1.05785
H      2.87089    0.29872    0.90714
