26

C     -0.22441   -0.77928    0.14034
C      0.65259   -1.86482    0.10818
C     -1.60349   -0.99533    0.10306
C     -1.23630   -3.37873    0.01073
C      0.15956   -3.17303    0.04833
C     -2.13316   -2.29067    0.02690
C     -1.77731   -4.78201   -0.09824
C      1.11288   -4.34984    0.01775
C      1.11207   -5.16779    1.32699
C     -0.31510   -5.38266    1.85706
C     -3.63118   -2.48463   -0.03298
N     -1.27764   -5.68771    0.80136
O     -2.61701   -5.10659   -0.94051
H      0.16518    0.23443    0.19149
H      1.72735   -1.69860    0.12676
H     -2.28265   -0.14650    0.12956
H      0.83856   -5.01456   -0.80814
H      2.12786   -3.99848   -0.18969
H      1.60344   -6.13041    1.14400
H      1.69051   -4.64930    2.10094
H     -0.33987   -6.20117    2.58132
H     -0.64905   -4.48335    2.38276
H     -3.93746   -2.82783   -1.02455
H     -3.97133   -3.24559    0.67571
H     -4.14748   -1.54746    0.19275
H     -1.61352   -6.63589    0.67976
