16

C      1.90535   -1.04673   -0.15847
C      2.91928   -1.63155    0.61400
C      0.81348   -0.46242    0.48415
C      2.84175   -1.63157    2.00457
C      0.72020   -0.45394    1.88276
C      1.73946   -1.04144    2.64525
C      0.65761   -0.50849    4.71271
O      1.75291   -1.09099    4.01497
H      1.96907   -1.04855   -1.24294
H      3.77664   -2.09097    0.12852
H      0.01923   -0.00490   -0.10055
H      3.61933   -2.08068    2.61582
H     -0.13950    0.00724    2.35581
H      0.86535   -0.65728    5.77338
H     -0.28875   -1.00095    4.45606
H      0.57681    0.56618    4.50643
