27

C      2.90505   -5.00733    3.26117
C      1.64589   -4.79152    3.83134
C      3.68800   -3.91769    2.85698
C     -1.86121    0.25064    5.04337
C     -1.79027   -0.06960    6.40254
C      1.17582   -3.48887    4.01260
C      3.21129   -2.61784    3.02033
C     -0.78124   -0.05066    4.21369
C     -0.64190   -0.67759    6.91616
C      1.95633   -2.39386    3.60959
C      0.35573   -0.69683    4.72118
C      0.44530   -1.00883    6.09396
C      1.46297   -0.98849    3.74596
C      1.67617   -1.63989    6.71036
O      1.92007   -0.09104    3.04313
H      3.27489   -6.02097    3.12872
H      1.03312   -5.63644    4.13443
H      4.66518   -4.08657    2.41213
H     -2.74337    0.73804    4.63704
H     -2.61914    0.16733    7.06480
H      0.19750   -3.32046    4.45347
H      3.79510   -1.76038    2.69924
H     -0.80703    0.20834    3.15894
H     -0.58116   -0.89224    7.98096
H      1.65610   -2.73137    6.62454
H      2.59723   -1.29845    6.23113
H      1.73830   -1.39073    7.77337
