31

C      0.87669   -1.93306    0.83047
C      0.92560   -0.56707    0.56105
C      7.33401   -6.46950    5.47415
C      6.38759   -7.03236    6.33633
C      1.84092   -2.53438    1.64908
C      1.94849    0.21862    1.11173
C      6.97489   -5.36322    4.70817
C      5.12407   -6.43883    6.39509
C      2.86923   -1.76238    2.19928
C      2.91337   -0.37406    1.92350
C      5.67643   -4.84247    4.85350
C      4.06829   -3.55754    3.46739
C      4.04572    1.70759    2.32265
N      4.77139   -5.35807    5.68923
N      3.89835   -2.26075    3.01871
N      5.30800   -3.68691    4.13788
O      3.28199   -4.47348    3.29861
O      3.96334    0.29858    2.51513
H      0.08331   -2.54489    0.41046
H      0.17505   -0.10109   -0.07122
H      8.33071   -6.89427    5.38652
H      6.61810   -7.90088    6.94574
H      1.80046   -3.59116    1.87542
H      1.98162    1.28158    0.90093
H      7.67355   -4.91955    4.00297
H      4.35683   -6.84163    7.05493
H      4.92106    2.03700    2.88423
H      3.15271    2.21253    2.70951
H      4.17832    1.95556    1.26281
H      4.51044   -1.54817    3.39680
H      6.07715   -3.16970    3.73032
