19

C     -1.30565    3.27763    1.29735
C     -1.59121    3.35292    2.62605
C     -0.22590    1.72602    2.26851
C      0.56561   -0.84882    0.29884
C      2.48963    0.69884    0.62571
N     -0.42095    2.21962    1.08419
N      1.46105   -0.15594    1.23731
O      1.91301    0.85405    3.51041
O     -0.05884   -0.72974    3.17411
O     -0.89739    2.35228    3.26587
S      0.83129    0.31980    2.69050
H     -1.66300    3.89499    0.48491
H     -2.20563    3.98776    3.24656
H     -0.13136   -1.47499    0.85467
H      1.18214   -1.49365   -0.33364
H      0.01436   -0.13789   -0.32742
H      3.10846    1.14012    1.40620
H      2.04064    1.48806    0.01174
H      3.12221    0.06229    0.00071
