20

C      1.89952   -1.05441   -0.11650
C      0.81495   -0.48772    0.55968
C      2.95811   -1.63463    0.58692
C      0.75194   -0.50128    1.96197
C      2.91122   -1.65269    1.98203
C      1.80646   -1.10515    2.65658
C     -0.40959    0.11933    2.70144
C      1.06412   -2.20821    4.62188
O      3.94300   -2.20081    2.69523
O      1.85392   -1.15141    4.04999
H      1.92936   -1.03201   -1.20266
H      0.01013   -0.02008   -0.00217
H      3.81740   -2.06236    0.07907
H     -1.20827   -0.61137    2.87864
H     -0.09612    0.51003    3.67308
H     -0.84251    0.93870    2.12103
H      1.25500   -2.19044    5.69710
H      1.35543   -3.18094    4.20789
H     -0.00293   -2.04445    4.43886
H      3.76483   -1.99567    3.63213
