19

C      0.50596    1.28281   -1.60557
C      0.09866    1.86817   -2.84083
C     -0.25255    0.31232   -1.01183
C     -1.07558    1.44736   -3.39849
C     -1.48551   -0.17193   -1.60431
C     -4.01355    1.05374   -4.07725
C     -4.40192    0.36213   -2.78625
C     -3.08516    0.04861   -3.43720
N     -1.86205    0.49723   -2.80369
O     -2.18746   -1.08146   -1.15489
H      1.43139    1.60952   -1.13650
H      0.69196    2.62713   -3.33746
H      0.03840   -0.15796   -0.07840
H     -1.44831    1.84109   -4.33745
H     -4.50271    0.76160   -5.00155
H     -3.75533    2.10665   -4.01681
H     -4.36744    0.95048   -1.87559
H     -5.16130   -0.41234   -2.80230
H     -2.99104   -0.92880   -3.90200
