44

C      0.75027    0.84177    1.71515
C      1.39191   -3.26144   -1.06149
C      1.54260   -2.53592   -3.35759
C     -0.24184    1.62067    2.30340
C      1.10665   -4.56045   -1.48627
C      1.26108   -3.82841   -3.79806
C     -1.68517    1.09236    0.42362
C      0.56401    0.20039    0.47976
C      1.59835   -2.22702   -1.98807
C     -0.68985    0.32278   -0.17311
C     -1.47486    1.75086    1.64618
C      1.02999   -4.82948   -2.85307
C      1.73069   -0.56647   -0.04450
C     -0.99380   -0.39073   -1.46900
C     -0.21354    0.15622   -2.67743
C      1.29411    0.30443   -2.42284
C      1.93322   -0.80084   -1.55300
C     -2.37630    3.15622    3.36070
C     -1.17019   -6.48787   -3.46924
O      2.61066   -0.95623    0.72056
O      1.12307   -6.63463   -4.79402
O      1.03967   -7.43920   -2.35846
O     -2.52580    2.48155    2.11156
S      0.63904   -6.49228   -3.41105
H      1.70960    0.72338    2.20901
H      1.47235   -3.06264    0.00154
H      1.73261   -1.76294   -4.09585
H     -0.04889    2.11135    3.25042
H      0.96961   -5.36306   -0.76749
H      1.24075   -4.06905   -4.85679
H     -2.66016    1.19120   -0.04572
H     -0.77362   -1.45657   -1.35523
H     -2.06546   -0.32078   -1.67738
H     -0.39104   -0.51808   -3.52159
H     -0.61916    1.13262   -2.96470
H      1.81913    0.36136   -3.38207
H      1.49070    1.26003   -1.92597
H      3.02121   -0.70822   -1.65665
H     -3.32469    3.66419    3.53814
H     -1.56864    3.89629    3.31803
H     -2.18413    2.44722    4.17436
H     -1.46602   -7.48432   -3.80453
H     -1.55539   -6.28980   -2.46806
H     -1.50005   -5.72918   -4.18017
