59

C      1.06255    1.93948    0.50996
C      0.51062    3.25700   -1.43807
C     -1.29744    0.21791   -0.27058
C      2.29517    2.57789    0.59559
C      1.74181    3.90223   -1.35596
C     -2.52761   -0.42157   -0.36207
C     -5.75882   -8.36156   -1.46292
C     -4.87255   -6.62283   -0.01961
C     -4.82228   -9.26514   -0.96550
C     -3.92985   -7.53008    0.48264
C     -2.31588    2.27012   -1.00678
C      0.14489    2.26426   -0.50880
C     -1.16438    1.58130   -0.59817
C      2.64662    3.56620   -0.33691
C     -3.56703    1.65304   -1.09973
C     -3.66230    0.28816   -0.77917
C     -5.78933   -7.03910   -0.99367
C     -3.91947   -8.83227    0.00394
C      3.97088    4.21894   -0.20676
C     -4.80268    2.42708   -1.50744
C     -6.07350    1.66744   -1.11579
C     -5.93888    0.19992   -1.51681
C     -7.18164   -0.62079   -1.19847
C     -8.24930   -2.80659   -1.40102
C     -6.84761   -4.87634   -1.08039
C     -8.01595   -4.25269   -1.83152
N     -7.08804   -1.97860   -1.72764
O      4.79639    3.96804    0.65548
O     -4.83705   -0.41448   -0.82388
O      4.20438    5.16072   -1.16659
O     -9.22541   -4.96641   -1.58117
O     -6.74701   -6.22825   -1.54896
F     -3.00337   -9.71344    0.49174
H      0.79259    1.19882    1.25717
H     -0.16602    3.50292   -2.25148
H     -0.42322   -0.35488    0.02547
H      2.99738    2.33177    1.38609
H      2.01220    4.65800   -2.08576
H     -2.63253   -1.47697   -0.12796
H     -6.47570   -8.66492   -2.22010
H     -4.87503   -5.60581    0.35424
H     -4.78563  -10.29123   -1.31828
H     -3.21084   -7.22715    1.23761
H     -2.25058    3.33436   -1.22338
H     -4.79074    3.41956   -1.04494
H     -4.79501    2.59006   -2.59315
H     -6.23289    1.72141   -0.03246
H     -6.95030    2.10559   -1.60313
H     -5.72789    0.14141   -2.59712
H     -8.06253   -0.07123   -1.57794
H     -7.28445   -0.68156   -0.10928
H     -9.18930   -2.45659   -1.85990
H     -8.39909   -2.78222   -0.31563
H     -7.05234   -4.87029   -0.00176
H     -5.92607   -4.32145   -1.28127
H     -7.78181   -4.28069   -2.90854
H     -6.98699   -1.93181   -2.74096
H      5.09504    5.51210   -0.97768
H     -9.02699   -5.90824   -1.71651
