26   

C        0.3833040774   -0.4961923914   -0.3399103386
C        7.4795932354   -0.2461203595    4.7883797662
C        1.5796904091    0.1762215033   -0.0742128518
C       -0.1360159078   -1.3877804098    0.6027433497
C        6.9671840421   -0.6875823049    3.5650174566
C        6.6066200020    0.1751780250    5.7951811550
C        2.2544508016   -0.0445448915    1.1325678506
C        0.5399919704   -1.6030476220    1.8093928583
C        5.5836937873   -0.7062929948    3.3506197559
C        5.2240148858    0.1516910064    5.5779178161
C        1.7419217659   -0.9349446795    2.0873292042
C        4.6975707677   -0.2883288725    4.3541982531
C        2.4376097912   -1.1515483669    3.3572829463
C        3.2500796820   -0.3257621338    4.1367681764
H       -0.1412097501   -0.3255155544   -1.2732791582
H        8.5505397098   -0.2321586832    4.9566204300
H        1.9841275482    0.8712043372   -0.8012022547
H       -1.0637276505   -1.9110954575    0.4009157713
H        7.6406755487   -1.0184608698    2.7827033903
H        6.9997196810    0.5179712493    6.7455529040
H        3.1791353699    0.4840989388    1.3342573408
H        0.1262927854   -2.2926856725    2.5358894627
H        5.1929643136   -1.0546439112    2.4013227885
H        4.5553879011    0.4757394758    6.3668875321
H        2.3066477341   -2.1434000597    3.7732227206
H        2.6990363337    0.4356825159    4.6757303342
26   

C        0.6188705826   -0.5015163429   -0.3404997687
C        7.3975165421   -0.1895056877    4.5746703455
C        1.7690880895    0.1881654568    0.0528604260
C        0.0251728273   -1.4158944520    0.5336124774
C        6.7884945576   -0.6964066680    3.4233486749
C        6.6082199129    0.2577200401    5.6375131543
C        2.3232882972   -0.0374936326    1.3185694118
C        0.5818236449   -1.6381901050    1.7985295598
C        5.3923794022   -0.7551584302    3.3367903442
C        5.2127107569    0.1966361393    5.5474700152
C        1.7370586981   -0.9534901319    2.2057626523
C        4.5882051539   -0.3088178810    4.3969351591
C        2.3031591079   -1.1803296901    3.5392687423
C        3.1259291432   -0.3847065777    4.3186123963
H        0.1871557981   -0.3260667108   -1.3194025726
H        8.4785600415   -0.1456021549    4.6441482695
H        2.2308843645    0.9011336523   -0.6205782727
H       -0.8682578736   -1.9515215238    0.2334191139
H        7.3969235398   -1.0478705761    2.5978877888
H        7.0764204225    0.6497334878    6.5332506077
H        3.2107831918    0.5088609728    1.6166315471
H        0.1097525563   -2.3460898574    2.4697127098
H        4.9305453654   -1.1577491358    2.4425738321
H        4.6110417402    0.5418456928    6.3801078559
H        2.0528612574   -2.1338162618    3.9888981340
H        2.5945401985    0.3047258117    4.9637954507
26   

C        0.8385565948   -0.4905488867   -0.3317119221
C        7.3150127353   -0.1537946868    4.3740007146
C        1.9048633940    0.2505752555    0.1844741080
C        0.2188669316   -1.4590693755    0.4619497192
C        6.6349295873   -0.7647947179    3.3171717090
C        6.5960394036    0.3626712405    5.4548750252
C        2.3487895893    0.0231324762    1.4925575580
C        0.6668150777   -1.6852763778    1.7685993409
C        5.2384111573   -0.8593345659    3.3431982097
C        5.1996894197    0.2683143199    5.4764618037
C        1.7372670033   -0.9493023998    2.3005710355
C        4.5026497956   -0.3418679163    4.4217904282
C        2.1831580841   -1.1832362847    3.6795195389
C        3.0394918692   -0.4517754391    4.4675231481
H        0.4915188139   -0.3129009811   -1.3433455168
H        8.3967251089   -0.0831162325    4.3567208431
H        2.3869848328    1.0051758738   -0.4264516604
H       -0.6110312766   -2.0339098353    0.0669175403
H        7.1885683093   -1.1696255698    2.4777133669
H        7.1196663087    0.8343182798    6.2786386658
H        3.1710614063    0.6117979233    1.8829093552
H        0.1740060351   -2.4363334938    2.3747526227
H        4.7247517648   -1.3440089506    2.5208362940
H        4.6549102086    0.6689945550    6.3232446461
H        1.7952870023   -2.0787861796    4.1502390095
H        2.5496040091    0.1470586543    5.2260995077
26   

C        1.0328927290   -0.4710534814   -0.3081001954
C        7.2298948960   -0.1366155291    4.1972983188
C        2.0003315796    0.3252936662    0.3101970334
C        0.4133867915   -1.4945829700    0.4131417711
C        6.5034134303   -0.8516186932    3.2415812945
C        6.5648308677    0.4529743845    5.2751037117
C        2.3446431992    0.0990452032    1.6481111697
C        0.7635485091   -1.7210735256    1.7492402182
C        5.1148194678   -0.9781930311    3.3662324459
C        5.1757918042    0.3284682576    5.3940012925
C        1.7331473021   -0.9291370042    2.3847261861
C        4.4319337776   -0.3872667625    4.4424104714
C        2.0722477920   -1.1659128237    3.7954234415
C        2.9765767456   -0.5276293742    4.5951040238
H        0.7622565192   -0.2938917994   -1.3428690505
H        8.3058560911   -0.0416885664    4.1041720306
H        2.4831933729    1.1215644557   -0.2446549330
H       -0.3408161779   -2.1122175603   -0.0611052515
H        7.0148008732   -1.3120214562    2.4039805051
H        7.1248093422    1.0050410259    6.0213283658
H        3.0915369586    0.7301770247    2.1160048888
H        0.2718475051   -2.5162612267    2.2971497301
H        4.5661439559   -1.5424024758    2.6207615073
H        4.6740523828    0.7880643625    6.2374041672
H        1.5340856816   -1.9731594960    4.2780455049
H        2.5479039196   -0.0470467646    5.4665796659
26   

C        1.2068015060   -0.4515406886   -0.2812606643
C        7.1495649095   -0.1240913607    4.0397073282
C        2.0738101262    0.3953596400    0.4141217672
C        0.6005090017   -1.5203115709    0.3834831015
C        6.3996644193   -0.9324684518    3.1813946454
C        6.5209116246    0.5277708373    5.1034876925
C        2.3297730757    0.1750333652    1.7726436955
C        0.8642033061   -1.7415920083    1.7401735787
C        5.0245680456   -1.0909579943    3.3902810040
C        5.1445792186    0.3723977539    5.3051303248
C        1.7308564102   -0.8981437000    2.4529201201
C        4.3782722717   -0.4382306034    4.4529855975
C        1.9778081076   -1.1317102303    3.8850696819
C        2.9363932139   -0.6092100946    4.6942701585
H        1.0040166945   -0.2789256687   -1.3321816297
H        8.2154549009   -0.0045333556    3.8818015719
H        2.5476344924    1.2256226875   -0.0969286903
H       -0.0762443832   -2.1773558071   -0.1508089384
H        6.8821696942   -1.4398723993    2.3539005632
H        7.0993902363    1.1524439041    5.7745444520
H        3.0004746064    0.8432301252    2.3006852823
H        0.3852904786   -2.5729422293    2.2439447657
H        4.4562157414   -1.7252625222    2.7196076718
H        4.6702284631    0.8819545825    6.1355720734
H        1.2931177164   -1.8162649084    4.3719506765
H        2.5824949546   -0.2754343542    5.6626804943
26   

C        1.3461343469   -0.4384848851   -0.2495895242
C        7.0740491296   -0.1158239115    3.9182129371
C        2.1328464980    0.4459878860    0.4931658289
C        0.7477971194   -1.5319677868    0.3817049968
C        6.3168453325   -0.9902657002    3.1340655790
C        6.4680627367    0.5706318603    4.9735828533
C        2.3157800352    0.2385410498    1.8654034346
C        0.9398473901   -1.7404157279    1.7524307540
C        4.9575528080   -1.1803353388    3.4092627831
C        5.1067386272    0.3839565161    5.2403705526
C        1.7244372075   -0.8588764594    2.5116147502
C        4.3346705475   -0.4932925287    4.4635820812
C        1.8974717575   -1.0806789140    3.9581562965
C        2.9080072388   -0.6951200967    4.7726542423
H        1.1997520935   -0.2761536728   -1.3114493242
H        8.1279751468    0.0285255230    3.7090979976
H        2.6014754356    1.2946253695    0.0082164219
H        0.1331770626   -2.2182592574   -0.1895914568
H        6.7811045498   -1.5236121556    2.3124939503
H        7.0524829423    1.2466733339    5.5872228834
H        2.9258402724    0.9328402800    2.4319794285
H        0.4697852634   -2.5911988123    2.2315210584
H        4.3807828463   -1.8633339475    2.7960064236
H        4.6478444789    0.9207808730    6.0622913377
H        1.0887645208   -1.6131562611    4.4451971515
H        2.6302705194   -0.5297228337    5.8071852009
26   

C        1.4393339287   -0.4382097332   -0.2215058287
C        7.0156585201   -0.1044846187    3.8408913012
C        2.1859840647    0.4663676974    0.5384853799
C        0.8297832556   -1.5303691895    0.4016971241
C        6.2607338296   -1.0116300293    3.0922283225
C        6.4218182644    0.5809607767    4.9040263942
C        2.3175857266    0.2800530402    1.9195927484
C        0.9711128827   -1.7174946449    1.7816692375
C        4.9160754702   -1.2350760359    3.4107387935
C        5.0745966471    0.3607878200    5.2135928582
C        1.7150086333   -0.8157118196    2.5569122643
C        4.3061037898   -0.5490437492    4.4725014654
C        1.8378587037   -1.0165489958    4.0133602846
C        2.8927851185   -0.7840488366    4.8243794472
H        1.3329698337   -0.2926921680   -1.2905330171
H        8.0583396622    0.0662580592    3.5980544692
H        2.6638525873    1.3135071423    0.0600077176
H        0.2462861764   -2.2322517454   -0.1831123561
H        6.7150986134   -1.5437057311    2.2643441951
H        7.0045974295    1.2823952855    5.4900868932
H        2.8980999211    0.9870443585    2.5013988238
H        0.4942972436   -2.5671568533    2.2560909790
H        4.3382873682   -1.9410553604    2.8250070458
H        4.6230071427    0.8966595630    6.0401905025
H        0.9402794994   -1.3733734547    4.5052071288
H        2.6796396790   -0.8025413077    5.8869772335
26   

C        1.5728311793   -0.9307094170   -0.2463393295
C        6.8838790171    0.3878013446    3.8644228459
C        2.6635595678   -1.5469931602    0.3735516533
C        0.5696849200   -0.3483932061    0.5331938965
C        5.8028874086    1.0080927072    3.2316046011
C        6.6520387198   -0.6118404415    4.8131288816
C        2.7467281127   -1.5836656933    1.7704501565
C        0.6614138858   -0.3801434977    1.9295562686
C        4.4933091297    0.6310424188    3.5516468636
C        5.3410312277   -0.9913751080    5.1237313081
C        1.7490723865   -0.9973971806    2.5639639447
C        4.2476890361   -0.3753097701    4.4980020711
C        1.8227902458   -1.0366415978    4.0384166303
C        2.8700834146   -0.7758785342    4.8486826206
H        1.5050641023   -0.9048688287   -1.3280235076
H        7.8985644088    0.6813802194    3.6204402596
H        3.4464206627   -1.9971059650   -0.2259944714
H       -0.2800679235    0.1272244304    0.0569385343
H        5.9767432602    1.7814965552    2.4923141047
H        7.4871332928   -1.0929831770    5.3093448180
H        3.5959854761   -2.0626064821    2.2446311505
H       -0.1205892647    0.0737022285    2.5269615900
H        3.6595237569    1.1157116826    3.0562978451
H        5.1696333205   -1.7674032818    5.8604815259
H        0.9145576769   -1.3604729137    4.5335066522
H        2.6656304873   -0.8274323782    5.9118888874
26   

C        1.5457717093   -0.9758573907   -0.2497047100
C        6.8859790930    0.4252692041    3.9017863976
C        2.6288983436   -1.5909782713    0.3841681297
C        0.5563231648   -0.3532205067    0.5158391946
C        5.7948196718    1.0376763615    3.2791634405
C        6.6715021153   -0.6040713365    4.8222197761
C        2.7180498569   -1.5865767488    1.7811350807
C        0.6539231778   -0.3438226722    1.9121517555
C        4.4923135316    0.6233876400    3.5813795456
C        5.3677366953   -1.0209304791    5.1150213633
C        1.7339073855   -0.9599924314    2.5614257367
C        4.2634130491   -0.4129854050    4.4998263612
C        1.8115432713   -0.9581208593    4.0346693904
C        2.8948944021   -0.8509440591    4.8343568308
H        1.4732276421   -0.9823248047   -1.3313706167
H        7.8950592897    0.7481131979    3.6719250516
H        3.4011344664   -2.0725818051   -0.2046043146
H       -0.2877058957    0.1215450272    0.0286824178
H        5.9552335176    1.8343433348    2.5618540002
H        7.5146022310   -1.0791489436    5.3106798171
H        3.5614014783   -2.0667261371    2.2644009315
H       -0.1185628438    0.1411031475    2.4973604791
H        3.6518188323    1.1045111491    3.0941228791
H        5.2113912735   -1.8196283955    5.8305586365
H        0.8649679052   -1.0930375396    4.5452369853
H        2.7310805369   -1.0910821858    5.8785720849
26   

C        1.4641813167   -1.0142696755   -0.2837708070
C        6.9374415221    0.4534227527    3.9785082954
C        2.5749909322   -1.5904558716    0.3383258834
C        0.4839483668   -0.3872369025    0.4896776951
C        5.8558822775    1.0394790997    3.3154392678
C        6.7135082075   -0.5803462740    4.8914297466
C        2.7012280834   -1.5430060207    1.7316468020
C        0.6179752422   -0.3348317124    1.8819841055
C        4.5531870480    0.5946426514    3.5696759970
C        5.4101016324   -1.0277476351    5.1367680504
C        1.7261975095   -0.9118627249    2.5206768110
C        4.3141467351   -0.4465830274    4.4808867565
C        1.8400553175   -0.8673681310    3.9892302367
C        2.9466124208   -0.9145482240    4.7680329607
H        1.3628845279   -1.0546222258   -1.3623976271
H        7.9463647200    0.8003553490    3.7860587449
H        3.3397820487   -2.0760716463   -0.2568604536
H       -0.3815792303    0.0573053045    0.0117894636
H        6.0238579577    1.8401587985    2.6043337494
H        7.5490439951   -1.0350116389    5.4113260320
H        3.5658350661   -1.9958572382    2.2034671159
H       -0.1492104094    0.1530260325    2.4716778872
H        3.7216744694    1.0586647483    3.0515011839
H        5.2484558459   -1.8293403728    5.8478504007
H        0.8998579198   -0.8077964611    4.5251671594
H        2.8003200738   -1.3411039562    5.7536277607
26   

C        1.3353405466   -1.0518154491   -0.3281296580
C        7.0146685981    0.4737158876    4.0951118062
C        2.5027543039   -1.5521134236    0.2544158019
C        0.3594133833   -0.4573233736    0.4755401197
C        5.9659892482    1.0139538076    3.3461608820
C        6.7546086168   -0.5381976867    5.0225485232
C        2.6905236673   -1.4610541698    1.6386498087
C        0.5537341446   -0.3618412192    1.8583677679
C        4.6596648323    0.5449745415    3.5284497343
C        5.4482470046   -1.0094000141    5.1971239001
C        1.7200029053   -0.8619255243    2.4585782658
C        4.3839256918   -0.4750470931    4.4540162597
C        1.8966032722   -0.7745877339    3.9171624202
C        3.0129778578   -0.9659107416    4.6681191572
H        1.1866511713   -1.1262385993   -1.3994391794
H        8.0259900527    0.8395932647    3.9583132796
H        3.2636284864   -2.0136142703   -0.3645395088
H       -0.5498492880   -0.0717663955    0.0285959558
H        6.1622405271    1.7986981059    2.6245794219
H        7.5643112964   -0.9572553320    5.6090160470
H        3.5986979811   -1.8582497150    2.0775296632
H       -0.2125250347    0.0995679625    2.4701166136
H        3.8551305634    0.9770539084    2.9443324676
H        5.2604217400   -1.7930226262    5.9216555447
H        1.0051594486   -0.5265173126    4.4813071110
H        2.8654530721   -1.5650338538    5.5590501883
26   

C        1.1705972547   -1.1054257261   -0.3562462040
C        7.0866222231    0.4958546750    4.2538874233
C        2.4041528801   -1.5069927700    0.1628707628
C        0.2036481444   -0.5642600341    0.4944814035
C        6.0941624979    0.9789248292    3.3971102035
C        6.7689516051   -0.4793177945    5.2024204318
C        2.6678130239   -1.3694965229    1.5308387482
C        0.4724482870   -0.4237994031    1.8608966749
C        4.7863077990    0.4886999853    3.4916792421
C        5.4613646624   -0.9706816300    5.2909685952
C        1.7067090900   -0.8232035636    2.3977480255
C        4.4529880106   -0.4949113128    4.4377719916
C        1.9637533199   -0.6898890550    3.8390264198
C        3.0798227715   -1.0052612112    4.5598578193
H        0.9636586217   -1.2155394072   -1.4147495957
H        8.0988177450    0.8779842263    4.1845193406
H        3.1574450464   -1.9286009327   -0.4927670347
H       -0.7564066634   -0.2552724670    0.0969554428
H        6.3351574278    1.7364493677    2.6601295511
H        7.5346717284   -0.8540001712    5.8721146099
H        3.6266908488   -1.6926385097    1.9197265251
H       -0.2886499969   -0.0057942346    2.5092007908
H        4.0257522682    0.8788787107    2.8250304762
H        5.2289767182   -1.7243344217    6.0341401332
H        1.1532287337   -0.2702576291    4.4231062194
H        2.9235216814   -1.7514348811    5.3299129623
26   

C        0.9809276265   -1.1725710645   -0.3759346419
C        7.1560023892    0.5224900300    4.4418828439
C        2.2774814887   -1.4660033618    0.0548568390
C        0.0390164350   -0.6919724522    0.5371777979
C        6.2457264160    0.9463783174    3.4700520215
C        6.7594513528   -0.4102853872    5.4034568987
C        2.6295997392   -1.2796631322    1.3969407048
C        0.3952489506   -0.5048363313    1.8777863444
C        4.9412562534    0.4382619062    3.4618460352
C        5.4550614123   -0.9177803933    5.3908539042
C        1.6939252956   -0.7944049628    2.3251050306
C        4.5298448684   -0.5020856776    4.4204565529
C        2.0476176613   -0.6125260341    3.7387183635
C        3.1587492670   -1.0277267593    4.4319140340
H        0.7059692863   -1.3198159192   -1.4142574196
H        8.1654359698    0.9178963627    4.4514886144
H        3.0109721489   -1.8419018273   -0.6492635003
H       -0.9690134446   -0.4663924839    0.2082197493
H        6.5478455842    1.6721389199    2.7236685970
H        7.4611633045   -0.7393189397    6.1614546947
H        3.6363703137   -1.5200485573    1.7189043179
H       -0.3465989609   -0.1358765917    2.5762833594
H        4.2430963771    0.7828718789    2.7076229586
H        5.1594532463   -1.6372250188    6.1454305152
H        1.3350793186   -0.0493301144    4.3295907061
H        2.9935739603   -1.8874532353    5.0703639980
26   

C        0.7808890714   -1.2475595534   -0.3984113766
C        7.2293395294    0.5545270184    4.6409303237
C        2.1272590636   -1.4426594261   -0.0780679007
C       -0.1112048316   -0.8160324655    0.5867784050
C        6.4239238671    0.9324908938    3.5630407268
C        6.7388229354   -0.3441562603    5.5919333886
C        2.5789635512   -1.2060651796    1.2257947972
C        0.3441001485   -0.5813306282    1.8894328416
C        5.1304492781    0.4115669168    3.4379843872
C        5.4447751532   -0.8621654436    5.4638472044
C        1.6934085966   -0.7720619192    2.2244121727
C        4.6259597156   -0.4921036902    4.3859685320
C        2.1578759491   -0.5400479043    3.5956709670
C        3.2656144878   -1.0267294776    4.2692673555
H        0.4291233068   -1.4326486695   -1.4070803546
H        8.2303323671    0.9589093452    4.7404267605
H        2.8221148967   -1.7808629285   -0.8382607311
H       -1.1567674332   -0.6653669767    0.3432025628
H        6.7989971867    1.6322012761    2.8249183496
H        7.3593727834   -0.6384924498    6.4306914547
H        3.6235957671   -1.3683552683    1.4653952160
H       -0.3580176636   -0.2515938864    2.6462447056
H        4.5112919279    0.7176828535    2.6025561130
H        5.0734639369   -1.5545938926    6.2102588927
H        1.5455426943    0.1363451187    4.1800457036
H        3.0960898341   -1.9672396064    4.7798117253
26   

C        0.5719529042   -1.3506192566   -0.4057441586
C        7.2868507878    0.6066137313    4.8608832729
C        1.9481345211   -1.4925095667   -0.2056151826
C       -0.2412873785   -0.9173414440    0.6450338482
C        6.5921075302    0.9787324908    3.7063599334
C        6.7095092862   -0.2965037481    5.7576990694
C        2.5082547366   -1.2004374971    1.0439070881
C        0.3222669563   -0.6296483954    1.8936290002
C        5.3224190855    0.4469068580    3.4506273773
C        5.4385043099   -0.8232346100    5.4999319452
C        1.7020788707   -0.7673012048    2.1067256792
C        4.7316146768   -0.4582310334    4.3443728015
C        2.2851939880   -0.4799935910    3.4189424652
C        3.3957663806   -0.9998907843    4.0864675477
H        0.1363201169   -1.5775616404   -1.3722560864
H        8.2695673357    1.0184086128    5.0611725729
H        2.5819895627   -1.8315933054   -1.0169948321
H       -1.3090751570   -0.8062479525    0.4942749362
H        7.0348606895    1.6815719382    3.0098887402
H        7.2446624343   -0.5875526552    6.6544390849
H        3.5755386732   -1.3175050276    1.1935359075
H       -0.3177576770   -0.2991154048    2.7033552259
H        4.7871516954    0.7437176944    2.5558743717
H        4.9975322582   -1.5190060168    6.2041959926
H        1.7641116054    0.2862178380    3.9804694086
H        3.2349701780   -1.9964984094    4.4799612705
