24   

C       -1.2795381616   -1.2678984474    2.3550388671
C       -3.7699234729    0.3032709757    3.2430365051
C       -4.9904586694    0.8868078555    1.2460867111
C       -4.9028100951    0.6014312724    4.0102334241
C       -6.1160630982    1.1839553168    2.0226334942
C       -3.7937011450    0.4228059300    1.8364152359
C       -6.0849170057    1.0392964978    3.4103243716
C       -2.6854717471    0.1432730852    0.9320187222
C       -0.4551795134   -0.7162988528    0.1282214466
C       -1.5263417131   -0.5549163862    1.1402471041
C       -1.0321890367    0.8687176842   -3.0374972592
N       -1.0360559032   -1.8601380363    3.3281635739
N       -0.3188507484   -0.2202981318   -1.0850774370
O       -1.2736524671    0.6561514197   -1.6465609067
Cl      -7.4921909350    1.4072410266    4.3765364779
H       -2.8877623029    0.0066871266    3.7914846970
H       -5.0604440340    1.0111408524    0.1712956524
H       -4.8630821167    0.4971739090    5.0884052622
H       -7.0265354759    1.5295016840    1.5470076355
H       -2.8807963990    0.4904892606   -0.0686624603
H        0.3709106264   -1.3532002454    0.4254953617
H       -1.8515005216    1.4495958331   -3.4702700116
H       -0.9641135646   -0.0892670163   -3.5627418698
H       -0.0961316463    1.4181544283   -3.1753273441
24   

C       -1.4382785222   -1.3687474171    2.3129402008
C       -3.6794186131    0.5038397328    3.2272000349
C       -5.0665872739    0.7147059799    1.2621347233
C       -4.7923606812    0.7750774930    4.0321745606
C       -6.1727202481    0.9865233160    2.0755949661
C       -3.7981109251    0.4577746500    1.8240668906
C       -6.0472231391    1.0156141598    3.4666418644
C       -2.7027396075    0.1672812213    0.9032968785
C       -0.5338170839   -0.8373307143    0.1040022236
C       -1.6012822411   -0.6175782986    1.1064087115
C       -0.9010397222    0.9843888846   -2.9630844704
N       -1.2714394567   -1.9849542220    3.2871502301
N       -0.3361812355   -0.2981299778   -1.0814961940
O       -1.1952452710    0.6985885254   -1.5955634537
Cl      -7.4304288898    1.3516014498    4.4781972436
H       -2.7280662008    0.3561157472    3.7223843263
H       -5.2029026256    0.6937389059    0.1867347000
H       -4.6817498270    0.8030722897    5.1100240601
H       -7.1414778184    1.1744445917    1.6275555890
H       -2.8998216697    0.5063175675   -0.1013340334
H        0.2249208956   -1.5603396903    0.3830609933
H       -1.6613792735    1.6553809785   -3.3724615235
H       -0.8923395129    0.0614794962   -3.5517210263
H        0.0778473805    1.4666542993   -3.0423796598
24   

C       -1.6001471667   -1.4138966978    2.2550629015
C       -3.6264719072    0.6912130540    3.1725069794
C       -5.1322617909    0.5678907268    1.2889344638
C       -4.7151215193    0.9269486179    4.0203781225
C       -6.2153819680    0.8051879467    2.1435704032
C       -3.8174139897    0.5104993856    1.7909041406
C       -6.0174522695    0.9863535105    3.5155430845
C       -2.7281872320    0.2210183677    0.8545898188
C       -0.6430587973   -0.9394895874    0.0490364762
C       -1.6954988140   -0.6509689387    1.0481759948
C       -0.7877461693    1.0470721309   -2.9341567578
N       -1.4914178510   -2.0377944711    3.2324704800
N       -0.3910185729   -0.3847028021   -1.1184201210
O       -1.1556054039    0.7020595896   -1.5985389394
Cl      -7.3715686680    1.2793018567    4.5785239532
H       -2.6316415022    0.6631617038    3.6021522525
H       -5.3178594855    0.4200987996    0.2310187131
H       -4.5499832616    1.0641737206    5.0827180802
H       -7.2219834622    0.8453212972    1.7440124299
H       -2.9190346644    0.5724352223   -0.1479100935
H        0.0480761017   -1.7319650773    0.3145883190
H       -1.4821046697    1.7948019654   -3.3274506224
H       -0.8204190562    0.1627533707   -3.5785181184
H        0.2250128969    1.4609039381   -2.9484027195
24   

C       -1.7527709726   -1.4526247838    2.1929325510
C       -3.5935768330    0.8759951759    3.1099828052
C       -5.1726508497    0.4069260850    1.3454396928
C       -4.6543000716    1.0813618401    3.9999501108
C       -6.2292152112    0.6143430204    2.2404573281
C       -3.8387049712    0.5525955059    1.7658020581
C       -5.9803973895    0.9562159798    3.5736613953
C       -2.7520809865    0.2687134559    0.8132435211
C       -0.7567619479   -1.0253361775   -0.0108782496
C       -1.7896336607   -0.6794248021    0.9890873290
C       -0.6700123467    1.1075788827   -2.8940865097
N       -1.6937752883   -2.0875994499    3.1673910718
N       -0.4535297907   -0.4566092702   -1.1589883719
O       -1.1247889548    0.7051234024   -1.6020599839
Cl      -7.3008279927    1.2128674134    4.6872021707
H       -2.5746242499    0.9707086068    3.4689379276
H       -5.3909478577    0.1277079995    0.3208310971
H       -4.4494009461    1.3346332664    5.0336032146
H       -7.2535441853    0.5041758844    1.9041975599
H       -2.9294933042    0.6478967346   -0.1821896978
H       -0.1323255787   -1.8767269767    0.2367875893
H       -1.2939229771    1.9242544531   -3.2678094662
H       -0.7286032606    0.2696836245   -3.5960254967
H        0.3670895932    1.4514315685   -2.8357153517
24   

C       -1.9074447332   -1.5593723845    2.0802662412
C       -3.5781456956    1.0411305471    3.0217317437
C       -5.1808993591    0.2010525089    1.4263857924
C       -4.6080644051    1.2391478226    3.9489199247
C       -6.2078168636    0.4004486545    2.3571033787
C       -3.8562014732    0.5427831302    1.7410110205
C       -5.9321211049    0.9261691163    3.6238631521
C       -2.7725416628    0.2719534532    0.7684737499
C       -0.8523182256   -1.1054264931   -0.0950772606
C       -1.8775702890   -0.7419811384    0.9056471864
C       -0.5596026860    1.1809255276   -2.8437660441
N       -1.9063947144   -2.2363855290    3.0277843068
N       -0.4953379620   -0.5006488206   -1.2086297031
O       -1.0866302529    0.7218756364   -1.5989686562
Cl      -7.2153555310    1.1764647617    4.7814760786
H       -2.5561042704    1.2753177084    3.2983408917
H       -5.4139848264   -0.2220257825    0.4557762512
H       -4.3808027910    1.6329135074    4.9326752299
H       -7.2285099567    0.1411588026    2.1014041441
H       -2.9147010259    0.7278629589   -0.2003061979
H       -0.2865136938   -2.0052976542    0.1197710828
H       -1.1223489281    2.0548418908   -3.1836003921
H       -0.6365589156    0.3952938459   -3.6020559384
H        0.4917501496    1.4600565038   -2.7253900475
24   

C       -2.1254058766   -1.7787183175    1.9041007548
C       -3.6097526588    1.2637350930    2.9020338751
C       -5.1495685352   -0.0083291454    1.5500893830
C       -4.6310116129    1.5134446153    3.8266457315
C       -6.1683083165    0.2432569119    2.4770155013
C       -3.8589542731    0.5002980384    1.7545949253
C       -5.9190781111    1.0068706322    3.6225481276
C       -2.7809228899    0.2383431729    0.7674248840
C       -0.8697044782   -1.1465465706   -0.1158466804
C       -1.9584923745   -0.8398663736    0.8366322714
C       -0.4846821440    1.2010628068   -2.8021734490
N       -2.2379391851   -2.5587907112    2.7613839723
N       -0.4639545157   -0.5049632253   -1.1916613730
O       -1.0912199749    0.6866629036   -1.6168556668
Cl      -7.1913884467    1.3205548425    4.7767742527
H       -2.6164798508    1.6607677675    3.0791141812
H       -5.3598333701   -0.6059592687    0.6701933872
H       -4.4262615261    2.1024030292    4.7130183436
H       -7.1614587850   -0.1577324991    2.3118196308
H       -2.6925997635    0.9817198981   -0.0099497499
H       -0.3054222796   -2.0480016916    0.0963964634
H       -0.9864667330    2.1251034885   -3.1026947414
H       -0.5678884872    0.4728034668   -3.6147830420
H        0.5732713121    1.4154566321   -2.6220900959
24   

C       -2.3053539083   -1.9819595278    1.6979342256
C       -3.6707550106    1.4744591412    2.7360164421
C       -5.0763208709   -0.1945997034    1.7163771697
C       -4.6941239722    1.7812622145    3.6410448069
C       -6.0983152221    0.1140166115    2.6220526238
C       -3.8383306949    0.4617330580    1.7819738871
C       -5.9152333159    1.1010479610    3.5957372392
C       -2.7806753832    0.1955036753    0.7805720432
C       -0.8907584214   -1.1818559535   -0.1508403920
C       -2.0252426290   -0.9344989748    0.7637023620
C       -0.4554979489    1.2967739132   -2.7076085412
N       -2.5153405566   -2.8510639175    2.4440337964
N       -0.4542663381   -0.4820147625   -1.1769810612
O       -1.1158724320    0.6947175627   -1.5943090661
Cl      -7.1894779929    1.4835372211    4.7268261207
H       -2.7351670875    2.0202270953    2.7837578598
H       -5.2409747334   -0.9572582482    0.9632492519
H       -4.5445657015    2.5537523952    4.3862785432
H       -7.0431010816   -0.4144730551    2.5714689644
H       -2.4345412216    1.0716974781    0.2524275754
H       -0.3296528345   -2.0911396345    0.0346253912
H       -0.9066809816    2.2693517338   -2.9231152931
H       -0.5515613549    0.6576957841   -3.5905574231
H        0.6066631830    1.4421082334   -2.4866209803
24   

C       -2.4032075527   -2.0901072780    1.5699882514
C       -3.7318721785    1.6013164779    2.5998323450
C       -4.9901181546   -0.3179667533    1.8742243134
C       -4.7536535056    1.9296523018    3.4989975755
C       -6.0103205819    0.0120169402    2.7742731777
C       -3.8186970429    0.4536530014    1.7981605649
C       -5.8994310983    1.1351737728    3.5990766889
C       -2.7702458919    0.1739658063    0.8026811958
C       -0.9667489861   -1.2433479296   -0.2360120040
C       -2.0825399778   -0.9979280298    0.7024905639
C       -0.3888149773    1.3832192229   -2.6107764133
N       -2.6530428189   -2.9967588842    2.2568193695
N       -0.4966424804   -0.5017118177   -1.2171105996
O       -1.0948784287    0.7334011932   -1.5537451947
Cl      -7.1715557532    1.5448006586    4.7230132651
H       -2.8581441037    2.2399477831    2.5348867202
H       -5.1099096171   -1.1854360351    1.2345166617
H       -4.6619388611    2.8090770078    4.1256639577
H       -6.8986156439   -0.6060281588    2.8334461619
H       -2.3581588685    1.0567918174    0.3369320077
H       -0.4535726735   -2.1910553520   -0.1152486410
H       -0.7817468735    2.3940990403   -2.7509253929
H       -0.5109463155    0.8226993015   -3.5424860978
H        0.6773779489    1.4496403727   -2.3719361022
24   

C       -2.4664382611   -2.1948816253    1.4694452151
C       -3.8018556711    1.6715242764    2.4556765496
C       -4.9153170383   -0.4207628781    2.0429124787
C       -4.8080658051    2.0274818360    3.3615378905
C       -5.9194349429   -0.0622123176    2.9502466688
C       -3.8191535004    0.4288226513    1.8019796723
C       -5.8728824609    1.1617497258    3.6222357111
C       -2.7753754639    0.1255000407    0.8199558773
C       -1.0712067765   -1.3177282244   -0.3458404972
C       -2.1478895431   -1.0738024070    0.6391497175
C       -0.3404961828    1.4418873393   -2.5176788709
N       -2.7162699413   -3.1261012573    2.1227201132
N       -0.5828002235   -0.5450859091   -1.2938371761
O       -1.1110960127    0.7418035387   -1.5408051947
Cl      -7.1259154540    1.6062432950    4.7543329229
H       -2.9920930561    2.3683557654    2.2707553149
H       -5.0071102639   -1.3668517844    1.5220485299
H       -4.7667213235    2.9843756638    3.8686800250
H       -6.7472662455   -0.7376157564    3.1323645467
H       -2.3371789760    1.0043754112    0.3722240516
H       -0.6047129340   -2.2954758968   -0.2950121026
H       -0.6841668082    2.4777629265   -2.5867145856
H       -0.4533221949    0.9645221021   -3.4956978492
H        0.7184293777    1.4399510752   -2.2402444203
24   

C       -2.2728288059   -2.2022625263    1.9996976323
C       -3.9748564909    1.6752183530    2.9385920172
C       -4.7587528948   -0.4140081401    2.0437311949
C       -5.2717705795    1.9779465094    3.3689934660
C       -6.0544350762   -0.1077032049    2.4774753379
C       -3.6820258164    0.4639956177    2.2867020419
C       -6.3230369388    1.0870920235    3.1477677721
C       -2.3100903529    0.2317137599    1.8448447027
C       -0.2629223949   -1.0791429081    1.1784917029
C       -1.6589286615   -0.9563694792    1.6571434247
C        1.3739539842    2.0113763734    0.3886643808
N       -2.7476551284   -3.2335728814    2.2596648550
N        0.5901704363   -0.1693377748    0.7545347203
O        0.2347252693    1.1945376099    0.6594619725
Cl      -7.9405724887    1.4649880845    3.6863524134
H       -3.1852194573    2.3935877765    3.1281427823
H       -4.6278090645   -1.3374053004    1.4945840994
H       -5.4684872719    2.9130040000    3.8804180186
H       -6.8641245734   -0.8021837645    2.2854860340
H       -1.7248794359    1.1368235977    1.8112821134
H        0.1375835277   -2.0869918053    1.1660037258
H        1.0965903699    3.0670278122    0.4564962678
H        1.7499859355    1.8070659605   -0.6182761785
H        2.1687840679    1.8090847118    1.1137013238
24   

C       -2.2774778813   -2.2650166225    1.8178333343
C       -3.9959588239    1.7214925085    2.7609310481
C       -4.7500853089   -0.5027056508    2.2505015989
C       -5.2770034227    2.0538583178    3.2149637493
C       -6.0300326812   -0.1643460975    2.7078782731
C       -3.6928792103    0.4336197520    2.2785337927
C       -6.3058763805    1.1129696758    3.1966268689
C       -2.3293197772    0.1864521292    1.8271843570
C       -0.2981838879   -1.0806959853    1.0378769157
C       -1.6857161834   -0.9904576275    1.5528313242
C        1.4121507984    2.0355197670    0.5635424746
N       -2.7192356630   -3.3247949691    2.0147990680
N        0.5670553315   -0.1498537363    0.6889738290
O        0.2503264861    1.2254941521    0.7431165325
Cl      -7.9047873654    1.5275291314    3.7631247791
H       -3.2265550948    2.4846227638    2.7954720465
H       -4.6438882694   -1.5014100619    1.8543991570
H       -5.4782626526    3.0518281005    3.5866863620
H       -6.8237012182   -0.9019054057    2.6764815943
H       -1.7504850110    1.0933558168    1.7790559288
H        0.0887603731   -2.0874974736    0.9233283223
H        1.1590351844    3.0865546555    0.7285698423
H        1.7964949339    1.9185707570   -0.4541441451
H        2.1920173847    1.7454252650    1.2748188880
24   

C       -2.3530662410   -2.2647516182    1.4859778578
C       -4.0373029170    1.7617535718    2.5824666267
C       -4.7032566264   -0.5445049875    2.4588031237
C       -5.3148185829    2.1102273341    3.0332258388
C       -5.9805290801   -0.1874795057    2.9107497317
C       -3.6934809692    0.4284330712    2.2824798444
C       -6.2995111176    1.1386812026    3.2019631665
C       -2.3348400776    0.1771583629    1.8211768063
C       -0.3012818945   -1.0635577477    1.0023255754
C       -1.7116454066   -0.9874404719    1.4588991893
C        1.5221491118    2.0305114067    0.8194436083
N       -2.8187578276   -3.3327500699    1.4862667358
N        0.6187387074   -0.1356483585    0.8268418375
O        0.3662275158    1.2320474868    1.0715382154
Cl      -7.8947507144    1.5722248320    3.7646009003
H       -3.3050259041    2.5529671518    2.4669158377
H       -4.5754253977   -1.5965014826    2.2663132730
H       -5.5477760777    3.1451260954    3.2554077953
H       -6.7375981006   -0.9528123790    3.0376551893
H       -1.7595535557    1.0851299457    1.7758150038
H        0.0538254153   -2.0603044856    0.7634480081
H        1.2985247126    3.0802463495    1.0293114819
H        1.8245058082    1.9357039396   -0.2279964274
H        2.3492646674    1.7101848149    1.4604670238
24   

C       -2.4832591875   -2.1761509011    1.1713019107
C       -4.1148047741    1.7727400717    2.3868340780
C       -4.6148144859   -0.5605952122    2.6728124839
C       -5.3956103548    2.1050356392    2.8416056180
C       -5.8961532738   -0.2216177151    3.1258003027
C       -3.6926259620    0.4337010917    2.2776639051
C       -6.3004712121    1.1109023674    3.2119054170
C       -2.3392001839    0.1908555698    1.7946307267
C       -0.3265342078   -1.0682163467    0.9475324799
C       -1.7482016734   -0.9634153387    1.3553504108
C        1.5906145975    1.9574140828    1.1268777967
N       -3.0400796643   -3.1862924031    1.0080934971
N        0.6536736789   -0.1874129959    0.9607500349
O        0.4721557527    1.1279858175    1.4420483554
Cl      -7.8989858247    1.5253456917    3.7796063990
H       -3.4453575659    2.5787920637    2.1081551299
H       -4.3801687181   -1.6144093281    2.6787111469
H       -5.6940714790    3.1447682158    2.9087116284
H       -6.5852454323   -1.0040839451    3.4220898673
H       -1.7674491997    1.1007874844    1.7235928026
H       -0.0240063121   -2.0379103044    0.5671828000
H        1.3715103496    2.9931950069    1.4009666898
H        1.8056789122    1.9151159598    0.0543901308
H        2.4727846432    1.6226919863    1.6807847967
24   

C       -2.5858382364   -2.0882406837    1.0427972546
C       -4.2097580075    1.7541390252    2.2253133436
C       -4.5040965444   -0.5452241232    2.8624679702
C       -5.4930112654    2.0501728790    2.6991313126
C       -5.7879755171   -0.2448715810    3.3338542040
C       -3.6928330396    0.4471586397    2.2741271506
C       -6.2967997553    1.0526127378    3.2527432764
C       -2.3362554356    0.2226941760    1.7834328810
C       -0.3844003285   -1.0490075330    0.8219319863
C       -1.7901876614   -0.9211735942    1.2695007613
C        1.6513108417    1.8660952952    1.2835901406
N       -3.2035574037   -3.0576289876    0.8547711431
N        0.6273729054   -0.2087547116    0.8961838014
O        0.4981407353    1.0559456295    1.5121569379
Cl      -7.8983082341    1.4225214368    3.8423579151
H       -3.6155246419    2.5567254638    1.8031172120
H       -4.1559400500   -1.5616104929    2.9933238936
H       -5.8726625913    3.0634589858    2.6382860029
H       -6.3953876040   -1.0265540814    3.7751945455
H       -1.7673365113    1.1347996308    1.6977962566
H       -0.1290295555   -1.9937642370    0.3544487453
H        1.4703979277    2.8794524487    1.6527882724
H        1.8754974291    1.9162768576    0.2132767210
H        2.5140930584    1.4456120892    1.8088340655
24   

C       -2.6703582021   -1.9951481925    0.9628251682
C       -4.2965920558    1.7208796809    2.0791520647
C       -4.3911863389   -0.4900534415    3.0226822231
C       -5.5818389330    1.9836457254    2.5679019507
C       -5.6768094362   -0.2244849836    3.5091782967
C       -3.6882884040    0.4696779680    2.2700833705
C       -6.2866493280    1.0117210407    3.2819480512
C       -2.3200100562    0.2621683884    1.7899872250
C       -0.4409943330   -1.0103731720    0.6963304492
C       -1.8252607721   -0.8645447917    1.1978699391
C        1.7260668320    1.7655630335    1.3775982284
N       -3.3331792241   -2.9335242144    0.7718405697
N        0.5993750400   -0.2096951072    0.8001518970
O        0.5251164497    1.0060983943    1.5160382985
Cl      -7.8907424583    1.3402300835    3.8888068922
H       -3.7736822265    2.4985791733    1.5339603087
H       -3.9449710682   -1.4518121333    3.2478889578
H       -6.0402333324    2.9502746834    2.3945582675
H       -6.2065382825   -0.9829242302    4.0738051442
H       -1.7473759387    1.1738474544    1.7136969278
H       -0.2332665079   -1.9297556986    0.1598835931
H        1.5906476847    2.7556582547    1.8217691912
H        1.9806173754    1.8860031242    0.3197727432
H        2.5507249374    1.2578426371    1.8868025085
24   

C       -2.7302145703   -1.8861966897    0.8721043345
C       -4.3893961298    1.6593434378    1.9396860273
C       -4.2807531528   -0.4013307579    3.1789364435
C       -5.6746578563    1.8930340787    2.4434822649
C       -5.5661264129   -0.1657623990    3.6810445587
C       -3.6862883266    0.4921697844    2.2723346694
C       -6.2774352245    0.9802346806    3.3138282210
C       -2.3051512318    0.3077274377    1.7967008725
C       -0.4899186434   -0.9237817586    0.5600899931
C       -1.8518796346   -0.7833601709    1.1180459170
C        1.7859690652    1.6992985443    1.4608579611
N       -3.4223929644   -2.8005439256    0.6695500118
N        0.5710806224   -0.1554908524    0.6926624513
O        0.5430792606    0.9985228796    1.5076268488
Cl      -7.8815283802    1.2722282785    3.9390842997
H       -3.9407832721    2.3882896186    1.2742113134
H       -3.7450763439   -1.2901683669    3.4937362251
H       -6.2124302144    2.7904741574    2.1607938818
H       -6.0171777917   -0.8758829522    4.3642946304
H       -1.7300350629    1.2205360724    1.7503790378
H       -0.3217326048   -1.8063649692   -0.0472347300
H        1.6927449794    2.6527375032    1.9882817410
H        2.0723228832    1.8971723619    0.4230517058
H        2.5696146599    1.1042368825    1.9394078017
24   

C       -2.8011998627   -1.7597935848    0.7355717555
C       -4.4780114788    1.5459153761    1.8073934733
C       -4.1805235947   -0.2847690089    3.3438705214
C       -5.7674694290    1.7568822756    2.3106608423
C       -5.4699723844   -0.0718837206    3.8458452266
C       -3.6799458227    0.5031366708    2.2969097657
C       -6.2771957467    0.9474085491    3.3308385200
C       -2.2906528192    0.3347038069    1.8132430725
C       -0.5329104660   -0.8461827409    0.4526860195
C       -1.8815513458   -0.7065345451    1.0410199660
C        1.8451641118    1.6032112739    1.5549675734
N       -3.5281015030   -2.6318357632    0.4762325750
N        0.5538292139   -0.1247969141    0.6311330804
O        0.5706509062    0.9603710478    1.5360173141
Cl      -7.8864565458    1.2106459895    3.9556183236
H       -4.0998025458    2.1908555677    1.0222331767
H       -3.5669747714   -1.0748589250    3.7625294155
H       -6.3814301494    2.5550075575    1.9099982916
H       -5.8505561709   -0.7006684254    4.6422526583
H       -1.6926020999    1.2333651856    1.8493710061
H       -0.4017479827   -1.6831483113   -0.2243043166
H        1.7914435603    2.5124868576    2.1601527539
H        2.1498580517    1.8734156766    0.5389550551
H        2.5959295879    0.9340488508    1.9860504108
24   

C       -2.8984115764   -1.5265314175    0.4990431088
C       -4.5766094367    1.3522225046    1.6566001134
C       -4.0787118184   -0.1187921083    3.5019260073
C       -5.8830449038    1.5074794236    2.1354992896
C       -5.3860642587    0.0386428769    3.9777052126
C       -3.6613991638    0.5378197939    2.3353332071
C       -6.2994385527    0.8536089422    3.3001709986
C       -2.2727705683    0.3747913830    1.8349642537
C       -0.5454870580   -0.8085358841    0.4325925227
C       -1.9098598969   -0.6016636496    0.9640328724
C        1.9171853833    1.5271358658    1.5969411764
N       -3.6812081157   -2.2928993440    0.1040459652
N        0.5710536321   -0.1460878805    0.6520011339
O        0.6059328483    0.9686600198    1.5182220121
Cl      -7.9291272245    1.0497387901    3.8960365038
H       -4.2730230829    1.8631905905    0.7497734129
H       -3.3857990712   -0.7580303658    4.0374912919
H       -6.5840955309    2.1374259977    1.6005736146
H       -5.6999703360   -0.4761753437    4.8781800730
H       -1.5686089142    1.0978264082    2.2172031811
H       -0.4340784594   -1.6412790854   -0.2531268170
H        1.9124388394    2.3870277686    2.2726002405
H        2.2467057844    1.8569611504    0.6068520180
H        2.6222732858    0.7818278741    1.9777327963
24   

C       -2.9616554170   -1.2829688540    0.2529067280
C       -4.6666075981    1.1358507571    1.5442141763
C       -3.9880707729    0.0947509093    3.6117530476
C       -5.9763276935    1.2377323775    2.0278570384
C       -5.2994850724    0.1984084231    4.0913036169
C       -3.6519687322    0.5852748686    2.3401144060
C       -6.3037784899    0.7754208782    3.3068136202
C       -2.2745298067    0.4163310155    1.8226651801
C       -0.5625814356   -0.7612988294    0.4041065517
C       -1.9398718424   -0.4912049836    0.8676235329
C        1.9228759321    1.4826774060    1.6906746263
N       -3.7734324472   -1.9364097166   -0.2668772199
N        0.5671405905   -0.1450554234    0.6818681231
O        0.5923033216    0.9963798224    1.5143306168
Cl      -7.9378417346    0.9058796581    3.9086678453
H       -4.4363530669    1.4859175164    0.5440353678
H       -3.2281878997   -0.3699123952    4.2298708884
H       -6.7495367192    1.6729068177    1.4055675784
H       -5.5467017360   -0.1759532462    5.0777963359
H       -1.5033636715    0.8351005820    2.4523607922
H       -0.4554344082   -1.5890202558   -0.2883271551
H        1.9285088934    2.2813639896    2.4376451898
H        2.3054577560    1.8786040469    0.7450843628
H        2.5802386128    0.6765360254    2.0314956159
24   

C       -2.9914198866   -1.1594642943    0.0734130079
C       -4.7459489406    0.9721329598    1.4983185687
C       -3.9207629511    0.2964010866    3.6637401211
C       -6.0374812655    1.0784830306    2.0274836170
C       -5.2148142309    0.4053381252    4.1871414838
C       -3.6664225934    0.5959790239    2.3136018339
C       -6.2834802959    0.7999891837    3.3757465923
C       -2.3050202075    0.4131539902    1.7825601359
C       -0.5941726255   -0.6707779969    0.2883572869
C       -1.9741429113   -0.4198921491    0.7565050256
C        1.9143811621    1.3990787271    1.8026399616
N       -3.8008023081   -1.7639515680   -0.5060152575
N        0.5410992408   -0.0954895551    0.6256925464
O        0.5751594505    0.9767341250    1.5453400777
Cl      -7.8962462014    0.9334509884    4.0319169169
H       -4.5846079098    1.1853398908    0.4473218795
H       -3.1116923541   -0.0262695182    4.3092823214
H       -6.8599838463    1.3740652383    1.3866344117
H       -5.3981828539    0.1766457441    5.2304705939
H       -1.5243694422    0.7496712384    2.4484975532
H       -0.4889534551   -1.4434667167   -0.4653031277
H        1.9210018128    2.1346223983    2.6118565318
H        2.3421621449    1.8553623436    0.9048526133
H        2.5325401236    0.5451722949    2.0974902734
24   

C       -2.9770475458   -1.1013760185   -0.0844455319
C       -4.8118918401    0.7865173377    1.4791964011
C       -3.8572551228    0.4598170298    3.6730562081
C       -6.0802353342    0.9182125246    2.0567333034
C       -5.1290514350    0.5938329494    4.2426682267
C       -3.6781661000    0.5576892843    2.2793291669
C       -6.2511014868    0.8235835825    3.4410517626
C       -2.3295670035    0.3707284678    1.7380345428
C       -0.5978027844   -0.5706787766    0.1702708470
C       -1.9841849656   -0.3786066222    0.6501094653
C        1.8963619844    1.3249643173    1.9175376741
N       -3.7659634236   -1.6892981692   -0.7076287254
N        0.5312547427   -0.0161578231    0.5601778432
O        0.5574961315    0.9697396630    1.5718555791
Cl      -7.8361202831    0.9872643003    4.1554073690
H       -4.7207004888    0.8769460956    0.4028239301
H       -3.0073287223    0.2709798303    4.3191547236
H       -6.9433501467    1.0944077627    1.4253409196
H       -5.2527242668    0.5147940751    5.3164271927
H       -1.5480370654    0.6784781323    2.4158398341
H       -0.4793611495   -1.2767949984   -0.6443289955
H        1.8905783774    1.9819365961    2.7917636317
H        2.3719237700    1.8488486586    1.0829599877
H        2.4789801049    0.4289599397    2.1542349186
24   

C       -2.9449050294   -1.0346084590   -0.2504791373
C       -4.8732619233    0.5971346546    1.4798512922
C       -3.7998424452    0.6202071600    3.6427355037
C       -6.1159036713    0.7608483634    2.1037396090
C       -5.0468157067    0.7853807915    4.2566612089
C       -3.6901476515    0.5129796329    2.2400943754
C       -6.2155613698    0.8535039546    3.4943906228
C       -2.3529707718    0.3251781605    1.6844087405
C       -0.5897626875   -0.4539718932    0.0601557603
C       -1.9843552283   -0.3311422658    0.5425998709
C        1.8790714268    1.2441410001    2.0304387511
N       -3.7036471607   -1.6084432663   -0.9225323404
N        0.5301718984    0.0768827717    0.5064518078
O        0.5449166714    0.9600874275    1.6088945406
Cl      -7.7697420307    1.0559720947    4.2644011133
H       -4.8574215146    0.5621480547    0.3979005169
H       -2.9148621676    0.5646265302    4.2666190335
H       -7.0154373702    0.8203385094    1.5020102651
H       -5.1137910474    0.8587821445    5.3358613212
H       -1.5724521865    0.6222773314    2.3666513745
H       -0.4532489604   -1.0825484495   -0.8130888473
H        1.8585560231    1.8144500411    2.9633191671
H        2.3957536332    1.8322560677    1.2660853050
H        2.4316124315    0.3142071643    2.1985412313
24   

C       -2.9243525578   -0.9247997927   -0.4093148223
C       -4.9309207642    0.3861456562    1.5172894888
C       -3.7690450264    0.7738806212    3.5951830499
C       -6.1517723710    0.5763647293    2.1762729506
C       -4.9946326884    0.9642029087    4.2432822181
C       -3.7078099340    0.4632814722    2.2183410361
C       -6.1968947369    0.8621782291    3.5420256520
C       -2.3785682327    0.2853814995    1.6476461740
C       -0.5908311725   -0.3380122324   -0.0174442931
C       -1.9932225468   -0.2726569041    0.4582696633
C        1.8692136421    1.1306889378    2.1411105103
N       -3.6481277628   -1.4628872787   -1.1466114935
N        0.5249923940    0.1482744547    0.4875776792
O        0.5373298538    0.9115351603    1.6760517653
Cl      -7.7249641353    1.0964630917    4.3541159647
H       -4.9865879427    0.2058053136    0.4536175376
H       -2.8599275550    0.8600573466    4.1796541647
H       -7.0787351430    0.5070119051    1.6187494416
H       -5.0176851152    1.1923062120    5.3025354224
H       -1.5996258502    0.5790450530    2.3312724752
H       -0.4410919957   -0.8777383001   -0.9462662202
H        1.8434486466    1.6148215986    3.1213790803
H        2.4089079180    1.7753648992    1.4409629031
H        2.4019374976    0.1787919035    2.2325477440
24   

C       -2.9225252859   -0.6405793695   -0.5814111901
C       -4.9507921091    0.1260200541    1.6127145995
C       -3.7594659596    0.9528811709    3.5348599623
C       -6.1598582201    0.3242761885    2.2911929243
C       -4.9729390175    1.1472341350    4.2037457379
C       -3.7113908060    0.4357510970    2.2202635520
C       -6.1845040595    0.8347422369    3.5889467801
C       -2.3866524486    0.2816717306    1.6344289465
C       -0.5832579681   -0.2681583404   -0.0391790875
C       -1.9963171791   -0.1813317332    0.4059734288
C        1.9220121089    0.8727411323    2.2745153987
N       -3.6274378083   -1.0271424307   -1.4246611354
N        0.5473194768    0.0619755391    0.5532514611
O        0.5828899757    0.6200188208    1.8500721473
Cl      -7.6984836125    1.0774563502    4.4245829112
H       -5.0484427644   -0.2714164366    0.6155356576
H       -2.8449199330    1.2118391594    4.0565201983
H       -7.0953042932    0.0779587280    1.8020284637
H       -4.9784056759    1.5451091451    5.2118427459
H       -1.6128667035    0.5899959579    2.3153059500
H       -0.4366431874   -0.6746320678   -1.0341031890
H        1.9164032921    1.2866578331    3.2867683398
H        2.4014552130    1.5901705526    1.6015099464
H        2.4994655449   -0.0568821588    2.2759308444
