24   
Generated by ForceBalance from scan.xyz: Frame 1 of 13
C        6.1803479579   -0.2172155642    3.2796137648
C        5.1542398452   -3.8012377527    3.2649690083
C        5.9685474672   -2.6714268127    3.3313196759
C        3.7721509409   -3.6983203669    3.0900227904
C        3.9881106570   -1.2816687737    3.0336371395
C        5.3717582416   -1.4042337288    3.2159790081
C        3.1799031176   -2.4274085181    2.9685817596
C        0.8105714630   -3.1850835170    2.6546534470
C       -0.4335086195   -5.0167349639    2.6447449675
C       -1.3881369741   -3.7953150873    2.6492595459
N        6.8338950046    0.7466812515    3.3298822512
N        0.9071761217   -4.4484496246    2.8747600375
N       -0.4822297078   -2.6552997944    2.3637847895
N        1.8035330873   -2.2396337163    2.7819605901
H        5.5996212863   -4.7880037885    3.3572934188
H        7.0410785424   -2.7559772956    3.4714224670
H        3.1415143161   -4.5773760440    3.0561752272
H        3.5485281015   -0.2918215412    2.9404709460
H       -0.6758999594   -5.7318838068    3.4355957712
H       -0.4481864654   -5.5614973167    1.6901867289
H       -2.1910094409   -3.8537551250    1.9107303349
H       -1.8352588201   -3.6448171537    3.6365647072
H       -0.5453141044   -2.3144259530    1.4062296045
H        1.4670911562   -1.2859636642    2.7972723848
24   
Generated by ForceBalance from scan.xyz: Frame 2 of 13
C        6.1639755231   -0.2239954805    3.3842567120
C        5.1537947386   -3.8106132186    3.2800511560
C        5.9596389576   -2.6785410260    3.3936389461
C        3.7790960027   -3.7101552835    3.0531171133
C        3.9854982424   -1.2914278241    3.0426220887
C        5.3619345045   -1.4120165837    3.2738558057
C        3.1861850995   -2.4396445191    2.9306226075
C        0.8411367794   -3.2049323059    2.4960131623
C       -0.4556069240   -4.9957106718    2.6289738631
C       -1.3378028115   -3.7345184815    2.7788656667
N        6.8127224899    0.7403990791    3.4723364403
N        0.9220669719   -4.4696848890    2.7251302083
N       -0.4687224384   -2.6641319331    2.2303432044
N        1.8141891669   -2.2574596468    2.7111378741
H        5.6002757459   -4.7968112570    3.3728890799
H        7.0267238436   -2.7608566409    3.5716555865
H        3.1548539845   -4.5913841371    2.9779936118
H        3.5444398388   -0.3021757941    2.9505372949
H       -0.6232637128   -5.7287103482    3.4228336254
H       -0.6092089145   -5.5036763843    1.6656060074
H       -2.2912692521   -3.7772887627    2.2469167529
H       -1.5297258371   -3.5121730595    3.8328868236
H       -0.6062724955   -2.5430433765    1.2268267744
H        1.4813372308   -1.3056311412    2.6313289547
24   
Generated by ForceBalance from scan.xyz: Frame 3 of 13
C        6.1040242406   -0.2026075379    3.4739047199
C        5.1341639917   -3.7954962298    3.2597936625
C        5.9222190316   -2.6585909155    3.4317736474
C        3.7707736096   -3.7033208356    2.9687266694
C        3.9533150784   -1.2826512490    3.0150777644
C        5.3186997805   -1.3951122625    3.3063920895
C        3.1712196458   -2.4360564239    2.8460296317
C        0.8502100589   -3.2055946927    2.2965562172
C       -0.4483450386   -4.9600088194    2.6601745147
C       -1.2565823707   -3.6589773270    2.9056831570
N        6.7399154342    0.7649633590    3.6083868945
N        0.9461173469   -4.4685346382    2.5465148200
N       -0.4874840544   -2.6795736091    2.0996537207
N        1.8056109167   -2.2576131451    2.5816252165
H        5.5861736022   -4.7791444818    3.3528058655
H        6.9809648077   -2.7345750546    3.6563957158
H        3.1608546189   -4.5884113741    2.8419966521
H        3.5065116912   -0.2959838517    2.9231411031
H       -0.5072687018   -5.6748239050    3.4857415257
H       -0.7690304494   -5.4766910455    1.7432314049
H       -2.3016042959   -3.6964492235    2.5876721697
H       -1.2074156625   -3.3551317254    3.9552469608
H       -0.7368604566   -2.7679266732    1.1134422094
H        1.4935461802   -1.3088723239    2.4167476706
24   
Generated by ForceBalance from scan.xyz: Frame 4 of 13
C        6.0238603916   -0.2122132964    3.6177604713
C        5.1049892572   -3.8053353501    3.2434786805
C        5.8695890980   -2.6675123634    3.4944531073
C        3.7596301262   -3.7165267863    2.8757613885
C        3.9133122659   -1.2971106401    3.0079786274
C        5.2612336401   -1.4058118828    3.3715743290
C        3.1534285457   -2.4519063228    2.7618051325
C        0.8584258758   -3.2165729670    2.0944990075
C       -0.4081997082   -4.9166805475    2.7263846223
C       -1.1246036636   -3.5651934146    3.0265770717
N        6.6419223845    0.7558187253    3.8164963968
N        0.9688131240   -4.4783539354    2.3683431943
N       -0.5025764946   -2.7086040476    1.9887921182
N        1.7990957318   -2.2707923777    2.4386991709
H        5.5621325990   -4.7871964814    3.3298746258
H        6.9150555478   -2.7408245503    3.7752541089
H        3.1688966170   -4.6021315632    2.6815281561
H        3.4612539341   -0.3122703005    2.9226697545
H       -0.3405952085   -5.5908769327    3.5852230762
H       -0.9017616144   -5.4613930994    1.9074729700
H       -2.2130758467   -3.5835791244    2.9244292046
H       -0.8525645790   -3.1771802426    4.0115937859
H       -0.8718937109   -2.9792373100    1.0761510904
H        1.5184430003   -1.3243249537    2.2100208973
24   
Generated by ForceBalance from scan.xyz: Frame 5 of 13
C        5.9073192646   -0.2451954912    3.7834221252
C        5.0606653228   -3.8308060785    3.2147069777
C        5.7925181563   -2.6956208698    3.5572077315
C        3.7398999205   -3.7420398753    2.7656052054
C        3.8523278499   -1.3282363761    3.0039179030
C        5.1767905855   -1.4362419575    3.4449028463
C        3.1241125368   -2.4810438932    2.6682210585
C        0.8650921301   -3.2425870702    1.8766890082
C       -0.3332740871   -4.8697000176    2.7828261543
C       -0.9515860790   -3.4612833775    3.0943431978
N        6.4995113921    0.7205177775    4.0576879337
N        0.9821389016   -4.5052688249    2.1732928913
N       -0.5121292878   -2.7557324031    1.8683427068
N        1.7853219212   -2.2971630033    2.2803760378
H        5.5255562075   -4.8100151863    3.2886038734
H        6.8200267730   -2.7684638619    3.8980848114
H        3.1750551577   -4.6244239381    2.4948444696
H        3.3924007302   -0.3460832820    2.9309281331
H       -0.1276890289   -5.4888978571    3.6615077191
H       -0.9828734733   -5.4466668867    2.1075698117
H       -2.0403500767   -3.4446126562    3.1977580046
H       -0.4867430266   -2.9940907581    3.9650304063
H       -0.9853158263   -3.1786372786    1.0696738739
H        1.5354316669   -1.3517005659    2.0101030020
24   
Generated by ForceBalance from scan.xyz: Frame 6 of 13
C        5.7661487584   -0.2935682169    3.9435609281
C        5.0127256385   -3.8590144882    3.1600950064
C        5.7043905586   -2.7320518487    3.5978910497
C        3.7187101071   -3.7670613482    2.6378211098
C        3.7768571130   -1.3666947115    2.9979765841
C        5.0755759696   -1.4768817827    3.5081142561
C        3.0863891013   -2.5127308215    2.5690900030
C        0.8503971600   -3.2533346921    1.6724676392
C       -0.2051106139   -4.7906823766    2.8722016837
C       -0.7774735637   -3.3340301417    3.1280059989
N        6.3260310051    0.6656558388    4.2969541448
N        1.0019028370   -4.5102710822    2.0200303784
N       -0.5379527285   -2.8161662209    1.7656775745
N        1.7657468914   -2.3172521974    2.1233085147
H        5.4896518656   -4.8338212614    3.2118860939
H        6.7122499019   -2.8066172484    3.9928815263
H        3.1863268183   -4.6417818062    2.2891692450
H        3.3049392023   -0.3888709203    2.9465996465
H        0.1544124198   -5.3210421825    3.7602255138
H       -0.9624423357   -5.4233999053    2.3857735967
H       -1.8370546140   -3.2989814630    3.3967878403
H       -0.1866133589   -2.7709937513    3.8504702217
H       -1.0756902566   -3.3739552974    1.1049680960
H        1.5609783216   -1.3687625394    1.8211662016
24   
Generated by ForceBalance from scan.xyz: Frame 7 of 13
C        5.9685465676   -0.2993110839    2.6259810390
C        5.0296806072   -3.8355567068    3.3370535204
C        5.8180372038   -2.7192807915    3.0672734659
C        3.6379777474   -3.7444364756    3.4395596350
C        3.7938609036   -1.3658490655    2.9919374681
C        5.1865974947   -1.4745546368    2.8975544744
C        3.0094479456   -2.5003762372    3.2559737666
C        0.6146661476   -3.2157640194    3.6465705500
C       -0.2393982989   -4.9573370471    2.5689572854
C       -0.7819488400   -3.6069741930    1.9793711165
N        6.6003200233    0.6551839658    2.4059678324
N        0.8631581893   -4.4845192603    3.4674290698
N       -0.7584564028   -2.9324893323    3.2906751833
N        1.6071003571   -2.2986233360    3.2655963264
H        5.5028789040   -4.8030664202    3.4801081084
H        6.8980689555   -2.7945577915    2.9949353193
H        3.0280106228   -4.6113082120    3.6535120399
H        3.3271033629   -0.3941974678    2.8496394073
H       -1.0404619435   -5.4890959175    3.0980637355
H        0.2083982054   -5.6297487511    1.8325231602
H       -0.0940652335   -3.1651705600    1.2463908873
H       -1.7965535390   -3.6736141459    1.5766241064
H       -0.9407618428   -1.9295298664    3.2039079516
H        1.3820818663   -1.3306002362    3.4840126462
24   
Generated by ForceBalance from scan.xyz: Frame 8 of 13
C        6.0374910545   -0.2562962223    2.7877223275
C        5.0666536538   -3.8201546027    3.2868804710
C        5.8666334434   -2.6935262497    3.1071154615
C        3.6722695971   -3.7301547451    3.3308008866
C        3.8477754143   -1.3330857171    3.0065289576
C        5.2437772815   -1.4410413177    2.9686590089
C        3.0533467391   -2.4763629417    3.1835276096
C        0.6659835105   -3.2186115684    3.4770324258
C       -0.3459070396   -5.0029718851    2.6488672140
C       -0.9394412816   -3.7042226749    2.0233525622
N        6.6784359203    0.7061730696    2.6411643866
N        0.8720392451   -4.4929363179    3.3435575343
N       -0.7036545787   -2.8695831677    3.2193568772
N        1.6512667818   -2.2840765725    3.1494902306
H        5.5328515581   -4.7947459744    3.4022271925
H        6.9487488718   -2.7679580216    3.0785967107
H        3.0529474909   -4.6054799518    3.4741989529
H        3.3880346230   -0.3545570410    2.8908031389
H       -1.0676907143   -5.4619896036    3.3372049073
H       -0.0330854584   -5.7504477699    1.9156495325
H       -0.3619268679   -3.3693153359    1.1504939288
H       -2.0039867637   -3.7710049499    1.7824101830
H       -0.8286850277   -1.8754585288    3.0230520014
H        1.3994315004   -1.3231215841    3.3620223085
24   
Generated by ForceBalance from scan.xyz: Frame 9 of 13
C        6.0949580045   -0.2316361349    2.9386560753
C        5.0996136602   -3.8108370816    3.2452423904
C        5.9077187086   -2.6795327090    3.1474924445
C        3.7050796665   -3.7183241413    3.2355361041
C        3.8964909885   -1.3093589815    3.0227483173
C        5.2929702052   -1.4205085304    3.0372147041
C        3.0950496809   -2.4567141499    3.1199166924
C        0.7095539709   -3.2125999061    3.3072646177
C       -0.4102443317   -5.0266609856    2.7323631318
C       -1.0813978168   -3.7804119971    2.0982427073
N        6.7422177140    0.7344604325    2.8587592490
N        0.8856346119   -4.4906785948    3.2243728296
N       -0.6503378263   -2.8132059254    3.1307436326
N        1.6961812936   -2.2674429572    3.0455689484
H        5.5595612962   -4.7909852352    3.3360712144
H        6.9899719930   -2.7561371176    3.1592409306
H        3.0793195030   -4.5974956499    3.3160720386
H        3.4429926443   -0.3254316310    2.9304863127
H       -1.0257402817   -5.4244476440    3.5503923551
H       -0.2161348525   -5.8313537208    2.0191506322
H       -0.6549589491   -3.5504952059    1.1115609799
H       -2.1711154920   -3.8437860706    2.0378606429
H       -0.7490405183   -1.8467011985    2.8222601227
H        1.4227134205   -1.3120857618    3.2496309611
24   
Generated by ForceBalance from scan.xyz: Frame 10 of 13
C        6.1369083048   -0.2261111513    3.0765018683
C        5.1263465287   -3.8112481887    3.2058381829
C        5.9389326902   -2.6788936695    3.1839932589
C        3.7336364228   -3.7146183782    3.1453885426
C        3.9348946546   -1.2993758775    3.0345817575
C        5.3297814930   -1.4153670678    3.0988005933
C        3.1295154181   -2.4476735524    3.0571235759
C        0.7434658979   -3.2085688103    3.1308809541
C       -0.4406449523   -5.0395134355    2.7987569644
C       -1.1973701473   -3.8394214081    2.1831965500
N        6.7881170771    0.7404803077    3.0580906574
N        0.8998876822   -4.4883097763    3.1036934062
N       -0.6027791282   -2.7681539494    3.0129684067
N        1.7359443518   -2.2580419584    2.9456523720
H        5.5814251012   -4.7954158543    3.2753632087
H        7.0198579678   -2.7585758563    3.2340208375
H        3.1046285148   -4.5950080523    3.1691533155
H        3.4863234986   -0.3114489543    2.9634270412
H       -0.9386444046   -5.3894113058    3.7131132030
H       -0.3458994089   -5.8858262592    2.1139707050
H       -0.9485008713   -3.7133648902    1.1199519597
H       -2.2818078161   -3.8876616809    2.3101513300
H       -0.6959461420   -1.8451097145    2.5936800062
H        1.4439762021   -1.3061352564    3.1336722463
24   
Generated by ForceBalance from scan.xyz: Frame 11 of 13
C        6.1508270146   -0.2077119634    3.2066606351
C        5.1452887316   -3.7968144679    3.1749765273
C        5.9560459516   -2.6637149258    3.2216581039
C        3.7554389544   -3.7000061820    3.0697174011
C        3.9550742374   -1.2824534003    3.0525906827
C        5.3472288503   -1.3987328651    3.1603847944
C        3.1509761543   -2.4312954343    3.0067215357
C        0.7635899806   -3.1921419973    2.9648004671
C       -0.4374974181   -5.0370136775    2.8529015877
C       -1.2871590538   -3.8767123631    2.2816767548
N        6.7992763987    0.7602438939    3.2432626175
N        0.9182425780   -4.4700188474    2.9994914962
N       -0.5696225908   -2.7272025818    2.8762443525
N        1.7635780330   -2.2411594394    2.8642838040
H        5.5999111006   -4.7824189709    3.2245998518
H        7.0347947983   -2.7441196350    3.3054384067
H        3.1284661977   -4.5816493652    3.0432182119
H        3.5070468531   -0.2930510893    3.0020750600
H       -0.8186593461   -5.3596412842    3.8310578185
H       -0.4163868966   -5.9096155436    2.1947776151
H       -1.2385950094   -3.8512703373    1.1841571903
H       -2.3319983707   -3.9005681015    2.6002935915
H       -0.6763985341   -1.8638118352    2.3492912030
H        1.4569965493   -1.2892233627    3.0212261238
24   
Generated by ForceBalance from scan.xyz: Frame 12 of 13
C        6.1844983248   -0.2456096833    3.3010581494
C        5.1592008849   -3.8259180652    3.1593263557
C        5.9751474156   -2.6993113026    3.2525524891
C        3.7728888200   -3.7178575606    3.0249164349
C        3.9860971861   -1.3013568886    3.0707258061
C        5.3745955722   -1.4296577626    3.2081879722
C        3.1767665215   -2.4441068200    2.9784906466
C        0.7886075536   -3.1915035929    2.8189182694
C       -0.4393657199   -5.0265915946    2.8597228804
C       -1.3456347210   -3.8722228943    2.3594127450
N        6.8384123081    0.7165398587    3.3750009882
N        0.9211270107   -4.4669516793    2.9193510845
N       -0.5271256401   -2.6894165500    2.7078458640
N        1.7955017097   -2.2451630867    2.8211617577
H        5.6069775821   -4.8152552081    3.1954091784
H        7.0512064239   -2.7883168790    3.3589486897
H        3.1419016736   -4.5950737232    2.9659897554
H        3.5448200577   -0.3083691495    3.0338913879
H       -0.7380159728   -5.3587035931    3.8622593539
H       -0.4710022493   -5.8987550165    2.2001865925
H       -1.5059201218   -3.9327125985    1.2749042935
H       -2.3169256634   -3.8381812077    2.8585983792
H       -0.6261279627   -1.9085931001    2.0649080965
H        1.4805683683   -1.2923884180    2.9484616933
24   
Generated by ForceBalance from scan.xyz: Frame 13 of 13
C        6.1733847294   -0.2137931279    3.2650125966
C        5.1636781139   -3.8007121688    3.1971171925
C        5.9745199176   -2.6687767049    3.2683113114
C        3.7773125492   -3.7011448968    3.0574001291
C        3.9803012745   -1.2833457885    3.0482376992
C        5.3686029814   -1.4029509403    3.1947041136
C        3.1758377206   -2.4313764566    2.9778630585
C        0.7953759020   -3.1941426462    2.7636265015
C       -0.4162456539   -5.0511253463    2.7736992164
C       -1.3951868712   -3.8634566327    2.5182230120
N        6.8234863311    0.7521576936    3.3207662884
N        0.9169253506   -4.4589805379    2.9518852992
N       -0.5021026272   -2.6810634434    2.5341809794
N        1.7952183355   -2.2431735982    2.8159572754
H        5.6153374569   -4.7870933765    3.2577607497
H        7.0504929981   -2.7507686275    3.3809073285
H        3.1501257616   -4.5823653364    3.0214035780
H        3.5346937267   -0.2936457519    2.9863347536
H       -0.6917000099   -5.6085633827    3.6746241437
H       -0.3988675659   -5.7671078547    1.9430785227
H       -1.9151189850   -3.9476191548    1.5591975352
H       -2.1474196709   -3.7710554651    3.3064120024
H       -0.5658131355   -2.0885686320    1.7111246329
H        1.4629624061   -1.2931667633    2.9171143274
