28   
Generated by ForceBalance from scan.xyz: Frame 1 of 24
C        1.0370416080   -3.4201104276   -1.6982815812
C        0.1286438653    2.3926392661    2.1807508527
C        0.2520833701    1.5815914856    1.0350386201
C        1.4497297584   -3.9707992982   -2.9056819293
C       -1.2144163672   -0.1334809718    2.0082053521
C        1.0562085418   -1.8261768463   -3.9863726809
C        0.6237148944   -2.0795664369   -1.5893614074
C       -0.6584723669    1.9103159681    3.2088288214
C       -1.3121378011    0.6798383751    3.1207424519
C       -0.4027343628    0.3553658192    0.9688113195
C        0.6465170572   -1.3063111442   -2.7609203538
C        1.4536837213   -3.1605428119   -4.0460931841
C        0.2213381071   -1.6122184617   -0.2307875467
C       -1.6475384018    1.5019736891    5.1733856331
O        0.3427474984   -2.2929045149    0.7681365847
O       -0.9684371543    2.5128189242    4.4111981409
O       -2.0532933492    0.4661267776    4.2626161721
O       -0.2757186005   -0.3464645964   -0.2405157303
F        0.2802970557   -0.0107454735   -2.7554730269
Cl       1.9679284841   -3.8266461546   -5.5782861502
H        1.0271299905   -4.0214960846   -0.7951901397
H        0.6267833114    3.3539697374    2.2500614136
H        0.8521404966    1.9033419339    0.1903983662
H        1.7635034825   -5.0071463243   -2.9685410500
H       -1.7166988987   -1.0902455028    1.9433306597
H        1.0594597312   -1.1887257658   -4.8637403151
H       -0.9564767064    1.0804497645    5.9162245780
H       -2.5320389980    1.9359312465    5.6436892047
28   
Generated by ForceBalance from scan.xyz: Frame 2 of 24
C        0.8167365814   -3.4998412193   -1.7381896975
C       -0.0444426446    2.3985030077    1.9483485594
C       -0.0361022277    1.5279557982    0.8415016205
C        1.3974489759   -3.9740238488   -2.9081853016
C       -1.2479667341   -0.1987231035    2.1033538215
C        1.3804296910   -1.7110200940   -3.8008246242
C        0.4955640580   -2.1416448152   -1.5581133997
C       -0.6471390519    1.9391338204    3.1044608451
C       -1.2323736289    0.6747512484    3.1750058279
C       -0.6191650888    0.2656708839    0.9331147589
C        0.7943553789   -1.2696645416   -2.6169914754
C        1.6742075679   -3.0665655805   -3.9364921077
C       -0.1009456405   -1.7586885222   -0.2460890065
C       -1.3287850692    1.6020349372    5.2085265579
O       -0.1145311540   -2.5002161135    0.7161755574
O       -0.8193919122    2.5970210816    4.3056254032
O       -1.7924283079    0.4923188800    4.4211245859
O       -0.6008291163   -0.4927632352   -0.2471923141
F        0.5465056629    0.0520480029   -2.5325410652
Cl       2.4060337679   -3.6348481470   -5.4185822356
H        0.5976930493   -4.1786064234   -0.9204147067
H        0.4009141686    3.3864288778    1.8948631689
H        0.4201627121    1.8256349002   -0.0964287920
H        1.6343301650   -5.0256921419   -3.0277018797
H       -1.7013739963   -1.1791955156    2.1596696528
H        1.5983990943   -0.9978317990   -4.5881967876
H       -0.5201169712    1.2634463890    5.8707285801
H       -2.1654592408    2.0191266129    5.7725024702
28   
Generated by ForceBalance from scan.xyz: Frame 3 of 24
C       -2.4916902042   -2.6155682803   -2.0773504130
C        0.4470956676    0.5534248215    3.3383665567
C        0.3542945215    0.0320581883    2.0336965120
C       -2.3380052493   -3.8323296637   -2.7299323308
C       -1.7139971009    1.2908024534    1.6022304311
C       -0.0760420628   -3.9881444872   -1.8480527271
C       -1.4635539360   -2.0457483489   -1.3025362336
C       -0.5482388446    1.4251855978    3.7384634378
C       -1.5976646813    1.7793900428    2.8908265921
C       -0.7045572329    0.3936503834    1.2020285083
C       -0.2608427206   -2.7643820498   -1.2095276978
C       -1.1204562124   -4.5111462880   -2.6082496778
C       -1.7652699071   -0.7500095367   -0.6304292827
C       -1.7793206730    2.9842360588    4.7674170410
O       -2.8879161503   -0.2907007761   -0.5616257050
O       -0.7128118332    2.0417764574    4.9629244365
O       -2.4565860784    2.6335177790    3.5487466463
O       -0.6641319784   -0.1543983490   -0.0888309374
F        0.7769818788   -2.3135673263   -0.4772829400
Cl      -0.8999265608   -6.0440742175   -3.4177358464
H       -3.4266683330   -2.0694383172   -2.1479303267
H        1.2606355172    0.2776005232    4.0012664205
H        1.1024244797   -0.6556525520    1.6557986219
H       -3.1423382658   -4.2532460984   -3.3234620642
H       -2.5276513586    1.5652330211    0.9447227644
H        0.8688817518   -4.5095058552   -1.7414691661
H       -2.4797770118    2.9168877867    5.6022793741
H       -1.3590320274    3.9947241100    4.6697338985
28   
Generated by ForceBalance from scan.xyz: Frame 4 of 24
C       -2.4571006925   -2.4824501864   -2.1068986460
C        0.5739342086    0.6431277368    3.1675851788
C        0.5150150540    0.2156825014    1.8271043613
C       -2.3875892242   -3.7892589475   -2.5721072802
C       -1.7043983275    1.2322787316    1.5306403767
C       -0.1985344678   -4.0135341563   -1.5332427316
C       -1.4211930526   -1.8993343336   -1.3513833137
C       -0.5131237489    1.3439833766    3.6543593792
C       -1.6202042401    1.6248258603    2.8542813586
C       -0.6010505769    0.5043694733    1.0430297326
C       -0.2984770903   -2.6992121242   -1.0838676658
C       -1.2485371128   -4.5474899315   -2.2777220299
C       -1.6291877764   -0.4992093149   -0.8868475755
C       -1.9023428583    2.6509118852    4.8221048381
O       -2.6841207476    0.0867972943   -1.0220228503
O       -0.7237730839    1.8372021538    4.9276433698
O       -2.5629349124    2.3088669539    3.5913360125
O       -0.5343264108    0.0586104062   -0.2847268917
F        0.7418686512   -2.2376874615   -0.3631961836
Cl      -1.1348974104   -6.1944477785   -2.8491138869
H       -3.3290679166   -1.8714068216   -2.3156228085
H        1.4327941418    0.4222617826    3.7928789151
H        1.3314623979   -0.3446853446    1.3866346935
H       -3.1966375888   -4.2195294748   -3.1524082078
H       -2.5563185436    1.4659214263    0.9055588721
H        0.6866300656   -4.5937109601   -1.2967471219
H       -2.5676838262    2.4359057937    5.6606739978
H       -1.6128575964    3.7105469380    4.7939612579
28   
Generated by ForceBalance from scan.xyz: Frame 5 of 24
C       -2.3923859279   -2.3312782455   -2.1793341135
C        0.7822256842    0.7898817959    2.9761511921
C        0.7609391531    0.4443673633    1.6112517453
C       -2.4511568177   -3.6870746889   -2.4732915084
C       -1.6297503445    0.9829548555    1.4445076334
C       -0.4280888522   -4.0320209812   -1.1640728805
C       -1.3677491337   -1.7816157825   -1.3839156339
C       -0.4068775118    1.2111531867    3.5400045576
C       -1.5786846211    1.3002029917    2.7900994805
C       -0.4192244865    0.5409083937    0.8758964216
C       -0.3957246938   -2.6670337546   -0.8908305638
C       -1.4595321908   -4.5303302931   -1.9576553647
C       -1.4202405816   -0.3168106339   -1.1250938138
C       -1.9896583121    2.1239234342    4.8268418507
O       -2.3460990380    0.3813290050   -1.4793684224
O       -0.6693860181    1.5618082670    4.8519094203
O       -2.6153464546    1.7176573124    3.5966204270
O       -0.3227039564    0.1974834376   -0.4768580003
F        0.6158179119   -2.2375587074   -0.1137514540
Cl      -1.5121599124   -6.2401956752   -2.3098763326
H       -3.1483901245   -1.6533904697   -2.5617766604
H        1.6928282746    0.7157591480    3.5616435418
H        1.6585493951    0.0944396844    1.1141739289
H       -3.2471552859   -4.0915148326   -3.0890961274
H       -2.5375091959    1.0881161739    0.8632518430
H        0.3423854408   -4.6775035557   -0.7569359450
H       -2.5654793648    1.7362863113    5.6693535854
H       -1.9211382675    3.2205571829    4.8503287474
28   
Generated by ForceBalance from scan.xyz: Frame 6 of 24
C       -0.4858738534    2.9330194459   -2.6211237181
C        0.1624015743    2.1875686898    3.1029930298
C        0.2647946779    1.8031916200    1.7481382727
C       -1.3520006727    3.7915680378   -3.2854025272
C       -1.2782070194   -0.0702869772    2.1156799361
C       -3.2038585000    2.8826727735   -1.9934458118
C       -0.9346124674    2.0331205769   -1.6346670867
C       -0.6486585519    1.4303006650    3.9221379328
C       -1.3479425995    0.3246428557    3.4363346134
C       -0.4482884908    0.7004268107    1.2790297098
C       -2.3090674538    2.0349859894   -1.3462508947
C       -2.7134930028    3.7578449000   -2.9607408805
C        0.0882693642    1.1627957859   -0.9916812223
C       -1.8181584071    0.5393973129    5.6261090399
O        1.2548925233    1.1654541965   -1.3131316008
O       -0.9085374771    1.5918826394    5.2690909766
O       -2.0762877621   -0.2515014924    4.4502105986
O       -0.3889969120    0.2776348403   -0.0465947334
F       -2.8314154563    1.2082375696   -0.4217492429
Cl      -3.8236070699    4.8297094079   -3.7788875758
H        0.5743040610    2.9362361647   -2.8522443605
H        0.7120542952    3.0418596823    3.4843153407
H        0.9208947867    2.3567226526    1.0859040500
H       -0.9870389853    4.4779226297   -4.0418240381
H       -1.8314531114   -0.9159109183    1.7236800822
H       -4.2566714876    2.8471133703   -1.7358473855
H       -1.3586459346   -0.0949156368    6.3917657160
H       -2.7593875556    0.9751059646    5.9789668723
28   
Generated by ForceBalance from scan.xyz: Frame 7 of 24
C       -0.4638893537    2.9562777699   -2.4586452914
C        0.1378090628    2.2647504887    2.9140219387
C        0.3033369249    1.7799861501    1.5987688462
C       -1.3525719510    3.8845175757   -2.9866315690
C       -1.2263857001   -0.0889734024    2.0396714389
C       -3.1736390695    2.7665257723   -1.8210085703
C       -0.8851674809    1.9237385692   -1.5995914518
C       -0.6965605853    1.5546247103    3.7523604196
C       -1.3572936281    0.4023893500    3.3227168454
C       -0.3733941546    0.6332788056    1.1835811600
C       -2.2554311261    1.8562352006   -1.3060276853
C       -2.7088623654    3.7804108594   -2.6569633840
C        0.1590846611    0.9839585931   -1.0993352079
C       -1.9203969064    0.7694418792    5.4700993999
O        1.2661820278    0.9148744775   -1.5822785373
O       -1.0153036995    1.8111295131    5.0707097426
O       -2.1188032975   -0.1094106627    4.3464252674
O       -0.2258287507    0.1144838667   -0.1001330574
F       -2.7504838774    0.8825712962   -0.5180868524
Cl      -3.8463286655    4.9366427073   -3.3060804942
H        0.5923303432    3.0094829400   -2.7016585466
H        0.6580989161    3.1543942091    3.2532676983
H        0.9801010939    2.2914940148    0.9227578178
H       -1.0082761442    4.6770916866   -3.6421984790
H       -1.7497889874   -0.9711466676    1.6896647434
H       -4.2238868505    2.6693575613   -1.5687711620
H       -1.4799228782    0.2020071231    6.2969392085
H       -2.8816242834    1.2112596095    5.7543866989
28   
Generated by ForceBalance from scan.xyz: Frame 8 of 24
C       -0.4452094374    2.9679911028   -2.3131022009
C        0.1093252588    2.3196706897    2.7660975517
C        0.3403840828    1.7716703717    1.4868747823
C       -1.3478995298    3.9487306911   -2.7089012863
C       -1.1720424502   -0.1038550239    1.9567223462
C       -3.1426976723    2.6913671440   -1.6488273288
C       -0.8471623010    1.8460095483   -1.5674880666
C       -0.7487649494    1.6353188370    3.6029794041
C       -1.3681373221    0.4487851234    3.2062834800
C       -0.2984870177    0.5934876956    1.1017254898
C       -2.2098157512    1.7349065035   -1.2616644702
C       -2.6963920712    3.8003776178   -2.3665288527
C        0.2020372915    0.8458808407   -1.2062751855
C       -2.0310747257    0.9132841631    5.3056586208
O        1.2175657959    0.7052292824   -1.8485273354
O       -1.1283993180    1.9517332020    4.8908344686
O       -2.1623429280   -0.0267713766    4.2225336443
O       -0.0670186054    0.0137366359   -0.1443325981
F       -2.6788166901    0.6604198811   -0.5956923634
Cl      -3.8507642007    5.0189608623   -2.8534671774
H        0.6044644141    3.0530891939   -2.5754374176
H        0.5982822721    3.2352866660    3.0818888002
H        1.0354172092    2.2606456045    0.8123084971
H       -1.0192746119    4.8139434471   -3.2744715825
H       -1.6624382110   -1.0136633831    1.6307370214
H       -4.1885093571    2.5561216739   -1.3956828370
H       -1.6170780688    0.3996403813    6.1798482402
H       -3.0118696553    1.3495262887    5.5238371707
28   
Generated by ForceBalance from scan.xyz: Frame 9 of 24
C       -0.4220927158    2.8833505964   -2.2418475706
C        0.1241068340    2.3660711993    2.6334951937
C        0.4167354602    1.7682164758    1.3905826556
C       -1.3391370149    3.8898395141   -2.5291848236
C       -1.0385158845   -0.1410021115    1.9016576481
C       -3.0923878306    2.5606314843   -1.4888377485
C       -0.7966244899    1.7173177342   -1.5551386206
C       -0.7362985288    1.6884876421    3.4745137444
C       -1.2976605132    0.4617378523    3.1164457199
C       -0.1668483598    0.5511045867    1.0417947129
C       -2.1450706013    1.5822775160   -1.2084951571
C       -2.6724512994    3.7189854802   -2.1424636479
C        0.2546189694    0.6821354266   -1.3044660787
C       -2.0575451224    1.0052623331    5.1630929976
O        1.1534863242    0.4669599191   -2.0851429782
O       -1.1668912084    2.0487429562    4.7336005458
O       -2.1047417999    0.0029178555    4.1303638011
O        0.1414403812   -0.0756270293   -0.1665420192
F       -2.5802746669    0.4536097201   -0.6095061004
Cl      -3.8432839398    4.9686799984   -2.4956066644
H        0.6149130986    2.9872928498   -2.5452686135
H        0.5681099383    3.3133217258    2.9209663073
H        1.1113819064    2.2517581985    0.7117478276
H       -1.0320639628    4.7917497002   -3.0475889229
H       -1.4828755536   -1.0837810871    1.6048274413
H       -4.1282319481    2.4052526233   -1.2077621887
H       -1.6723365038    0.5556694210    6.0840599693
H       -3.0610331779    1.4204180094    5.3081086838
28   
Generated by ForceBalance from scan.xyz: Frame 10 of 24
C       -0.4158761085    2.8641884463   -2.1911626641
C        0.0539442452    2.4486258329    2.5728248866
C        0.4040038426    1.8308066635    1.3553520618
C       -1.3151753511    3.9053285090   -2.4070641284
C       -0.9923676019   -0.1192066762    1.8738184346
C       -3.0717584315    2.5806417305   -1.3635618619
C       -0.8027195029    1.6862415979   -1.5353858825
C       -0.8059860067    1.7595062435    3.4057847384
C       -1.3103177391    0.5037727839    3.0644480311
C       -0.1247934888    0.5854090626    1.0212516913
C       -2.1416179648    1.5694434603   -1.1543107238
C       -2.6390290569    3.7534570225   -1.9831032485
C        0.2170388879    0.6024742641   -1.3576356775
C       -2.1416342264    1.0645871653    5.0783510003
O        0.9883135240    0.2893270379   -2.2351530582
O       -1.2876807906    2.1356471443    4.6408671555
O       -2.1299134321    0.0405241683    4.0662255432
O        0.2531827883   -0.0595671688   -0.1597801373
F       -2.5790033720    0.4219700738   -0.5907201528
Cl      -3.7854390304    5.0474766445   -2.2483861504
H        0.6124073238    2.9543304356   -2.5274616857
H        0.4530188146    3.4191868550    2.8481054502
H        1.0963806381    2.3230466273    0.6806851112
H       -1.0009779785    4.8186581813   -2.9006354381
H       -1.3906398014   -1.0862870260    1.5900379390
H       -4.1026565644    2.4403185848   -1.0574484459
H       -1.7533890103    0.6504519010    6.0147101116
H       -3.1634049610    1.4405939514    5.1985578475
28   
Generated by ForceBalance from scan.xyz: Frame 11 of 24
C       -0.4028119666    2.8252961276   -2.1800952553
C       -0.0028099246    2.5310828704    2.5300410955
C        0.4019219332    1.9076724009    1.3328755598
C       -1.2797185395    3.8940858473   -2.3544614792
C       -0.9116014966   -0.0965909583    1.8600933507
C       -3.0421359709    2.6047786947   -1.2768526967
C       -0.8050810982    1.6519813825   -1.5276431393
C       -0.8488642348    1.8176649390    3.3573913377
C       -1.2858884522    0.5332249818    3.0308856890
C       -0.0611877046    0.6334343783    1.0122923648
C       -2.1338441112    1.5666125326   -1.1103474659
C       -2.5939975282    3.7737540773   -1.8932400402
C        0.1817280656    0.5300149729   -1.3888459866
C       -2.1904034962    1.0938717517    5.0129272814
O        0.8231947793    0.1129592760   -2.3249977135
O       -1.3752617749    2.1943434095    4.5734707124
O       -2.1039480555    0.0503648231    4.0246955523
O        0.3791869388   -0.0124097669   -0.1488787260
F       -2.5790446902    0.4201757351   -0.5482807660
Cl      -3.7102474450    5.1037828871   -2.1074108840
H        0.6167202011    2.8937272017   -2.5470917870
H        0.3432758128    3.5246991025    2.7944958037
H        1.0812820276    2.4192555039    0.6595789183
H       -0.9547787996    4.8047401330   -2.8460122059
H       -1.2561068998   -1.0875344232    1.5883290942
H       -4.0670438307    2.4890011860   -0.9417222303
H       -1.8086600663    0.7185568380    5.9680344936
H       -3.2312814734    1.4243750415    5.0981441145
28   
Generated by ForceBalance from scan.xyz: Frame 12 of 24
C       -1.6633523960   -2.7003752130    0.2929767241
C        0.9405101768    1.2145695746    3.3124832713
C        1.2230799525    0.7023712980    2.0305709281
C       -2.2856829475   -3.5403067971    1.2159082125
C       -1.1625829033    0.6647310332    1.4545158575
C       -0.2739014437   -3.5031872319    2.5873670304
C       -0.3637366426   -2.2256351748    0.5073643082
C       -0.3882327487    1.4253281581    3.6286696827
C       -1.4129880256    1.1582181403    2.7200655610
C        0.1896520520    0.4298889483    1.1417346101
C        0.3077163250   -2.6602011323    1.6484771618
C       -1.5836396969   -3.9283989434    2.3603957230
C        0.2716478058   -1.3223221776   -0.5123973053
C       -2.3458603474    1.9525951678    4.6065932926
O        0.5044577718   -1.6715058388   -1.6444395201
O       -0.9220706921    1.9086649623    4.8029383805
O       -2.6300665448    1.4627638748    3.2821818290
O        0.5194079057   -0.0283077733   -0.1427552855
F        1.5871949250   -2.2674339241    1.8468129818
Cl      -2.3506667404   -4.9808399355    3.5299150255
H       -2.1930745171   -2.3992548994   -0.6059195027
H        1.7324897997    1.4305193315    4.0218200891
H        2.2452474534    0.5054469041    1.7273975877
H       -3.2979112925   -3.8930169944    1.0502488181
H       -1.9554975819    0.4677591351    0.7417904918
H        0.2889357327   -3.8176058270    3.4594341049
H       -2.8338295354    1.3050246620    5.3424630293
H       -2.6922795351    2.9882686575    4.6897769589
28   
Generated by ForceBalance from scan.xyz: Frame 13 of 24
C        2.9806445927   -1.9079234160    0.0305899867
C        0.9492479104    1.0759097856    3.0975535612
C        1.2615595873    0.9171120866    1.7326657934
C        3.3115879091   -3.0011347072    0.8287351566
C       -1.1150459280    0.7580150269    1.1438629335
C        0.9435939029   -3.4171792580    1.2150318477
C        1.6465531007   -1.5247374125   -0.1632093842
C       -0.3888071280    1.0738330623    3.4423360098
C       -1.3942219116    0.9246313055    2.4861733435
C        0.2460107836    0.7477399600    0.7941112325
C        0.6552747725   -2.3125797550    0.4230529181
C        2.2848317504   -3.7433392906    1.4198717664
C        1.3559003421   -0.3493664390   -1.0497033266
C       -2.3747429127    1.1535720138    4.4979779141
O        1.8328454925   -0.2391341073   -2.1552246771
O       -0.9509919455    1.2164760670    4.6919041181
O       -2.6271640195    0.9661981853    3.0929156635
O        0.5469839966    0.6432201999   -0.5689204417
F       -0.6448563993   -2.0204949376    0.1933369442
Cl       2.6812864915   -5.1217965061    2.4216325035
H        3.7636375201   -1.3299673564   -0.4507630865
H        1.7263943051    1.2036984851    3.8436752239
H        2.2968954461    0.9319531360    1.4095038343
H        4.3477498450   -3.2804142826    0.9864382689
H       -1.8862107334    0.6258732804    0.3939639049
H        0.1382014476   -4.0030586954    1.6442627432
H       -2.7793230185    0.3009856804    5.0536556908
H       -2.8272420173    2.0963436868    4.8232357899
28   
Generated by ForceBalance from scan.xyz: Frame 14 of 24
C        3.0047535000   -1.9357981585    0.0519498088
C        0.9055806107    1.1686300946    3.0595176255
C        1.1994683500    0.9536914679    1.6979342717
C        3.3215786439   -3.0611673295    0.8085728356
C       -1.1822713993    0.7101796221    1.1600214644
C        0.9468593748   -3.4806146578    1.1463646654
C        1.6747169166   -1.5371610174   -0.1464632393
C       -0.4256639409    1.1523748197    3.4278967115
C       -1.4427319376    0.9342274806    2.4974645572
C        0.1726800120    0.7173222257    0.7857443303
C        0.6713715960   -2.3434121894    0.3964690870
C        2.2834357921   -3.8218447570    1.3554090594
C        1.4126917183   -0.3258849981   -0.9891824432
C       -2.3952476536    1.2335959061    4.5135558425
O        2.0101974654   -0.1121202183   -2.0188683798
O       -0.9709659060    1.3424104350    4.6790848477
O       -2.6661207232    0.9751861931    3.1231996059
O        0.4474520789    0.5522136465   -0.5747408595
F       -0.6257082142   -2.0439566032    0.1651321382
Cl       2.6597077065   -5.2413209054    2.3054631816
H        3.7946268396   -1.3406983040   -0.3958675663
H        1.6919383524    1.3505642165    3.7844787276
H        2.2291337545    0.9829520826    1.3576492086
H        4.3544001024   -3.3508850747    0.9693436557
H       -1.9620119201    0.5227420172    0.4311387955
H        0.1334137822   -4.0797556518    1.5406790919
H       -2.7678643202    0.3972548249    5.1145641064
H       -2.8674961306    2.1782111523    4.8034078717
28   
Generated by ForceBalance from scan.xyz: Frame 15 of 24
C        3.0372718500   -1.9735689500    0.0305101127
C        0.8600019818    1.2804993772    3.0314201737
C        1.1467247810    1.0011680853    1.6795179014
C        3.3510375835   -3.1422153803    0.7177980299
C       -1.2361050941    0.6928031322    1.1784226526
C        0.9763671574   -3.5608883851    1.0478426821
C        1.7089448311   -1.5524616306   -0.1418351473
C       -0.4668782248    1.2635486155    3.4133163611
C       -1.4882983901    0.9819042645    2.5046998408
C        0.1154794074    0.7044140112    0.7895408154
C        0.7024203792   -2.3805157999    0.3660510617
C        2.3104979991   -3.9260388934    1.2270814514
C        1.4667539487   -0.2904000554   -0.9086785557
C       -2.4277781112    1.3652796340    4.5128169421
O        2.1629217206    0.0485020778   -1.8383008682
O       -1.0048881308    1.5095315167    4.6585064083
O       -2.7066994443    1.0354983321    3.1391542660
O        0.3757969516    0.4650374985   -0.5606243275
F       -0.5956729320   -2.0658938050    0.1709839098
Cl       2.6803373808   -5.4003255127    2.0913605646
H        3.8273784773   -1.3569502927   -0.3863407927
H        1.6498990180    1.5117858901    3.7382652822
H        2.1732896104    1.0337283990    1.3298437777
H        4.3826994670   -3.4473736901    0.8557536430
H       -2.0189498519    0.4540173292    0.4681206795
H        0.1605820204   -4.1739394792    1.4149681689
H       -2.7784173638    0.5515026231    5.1567118956
H       -2.9162152980    2.3132036123    4.7621240433
28   
Generated by ForceBalance from scan.xyz: Frame 16 of 24
C        3.0921830021   -2.0595576725    0.0226427483
C        0.7670624983    1.3549688000    3.0986012153
C        1.0625417374    0.9943194872    1.7671650805
C        3.4404892932   -3.2716203239    0.6082514481
C       -1.3147678531    0.6208507239    1.2826514606
C        1.0840064583   -3.7230999478    1.0197311012
C        1.7551188159   -1.6342247318   -0.0650854001
C       -0.5599042552    1.3447126936    3.4781830154
C       -1.5744284240    0.9912848317    2.5867349602
C        0.0378727587    0.6295486104    0.8944622579
C        0.7735851658   -2.4993125015    0.4358178103
C        2.4250744877   -4.0945975585    1.1075534061
C        1.4910328170   -0.3208686171   -0.7260548157
C       -2.5262279995    1.4935482652    4.5627099140
O        2.2435204949    0.1620130949   -1.5410090973
O       -1.1060037535    1.6610566939    4.7047698980
O       -2.7954316056    1.0671906262    3.2136954294
O        0.2970268808    0.2968794573   -0.4339003428
F       -0.5338156227   -2.1841063905    0.3391384425
Cl       2.8371987736   -5.6235713187    1.8471551583
H        3.8594142391   -1.4076962239   -0.3827086700
H        1.5520385747    1.6414553269    3.7906225573
H        2.0899789099    1.0237715634    1.4197278673
H        4.4780798588   -3.5798783938    0.6778196495
H       -2.0920683441    0.3256859376    0.5875339146
H        0.2876599346   -4.3622271699    1.3850296891
H       -2.8730211513    0.7226660720    5.2592347798
H       -3.0251963960    2.4516026387    4.7437789584
28   
Generated by ForceBalance from scan.xyz: Frame 17 of 24
C        3.1588422910   -2.1436522799   -0.0689179963
C        0.6776367924    1.4817235458    3.1563431203
C        1.0035594256    1.0292534720    1.8596828840
C        3.5365472644   -3.3996274200    0.3893589696
C       -1.3629629553    0.6173203195    1.3523634130
C        1.2163147474   -3.8602110949    0.9632994278
C        1.8233428177   -1.7013552688   -0.0200734669
C       -0.6564339559    1.4958409457    3.5074903881
C       -1.6506514389    1.0773732670    2.6213635358
C       -0.0021346048    0.6045624653    0.9916451166
C        0.8734956884   -2.5934878779    0.4998131588
C        2.5532884391   -4.2503366886    0.9075579388
C        1.5376442830   -0.3353665376   -0.5458018786
C       -2.6461498795    1.7141309509    4.5362094072
O        2.3252643341    0.2862340248   -1.2217539144
O       -1.2302215613    1.8955331652    4.6976430215
O       -2.8850996322    1.1920151248    3.2153363914
O        0.2760586020    0.1652523249   -0.3000555618
F       -0.4315234861   -2.2651766508    0.5552803912
Cl       3.0027893378   -5.8339928747    1.4923871186
H        3.8990418545   -1.4654808970   -0.4808381627
H        1.4477669192    1.8167722544    3.8432890834
H        2.0387209683    1.0388443077    1.5356655050
H        4.5718295070   -3.7206612038    0.3492556399
H       -2.1249181494    0.2715567927    0.6634838583
H        0.4446838588   -4.5158676740    1.3516092193
H       -3.0079023307    0.9937283700    5.2778001664
H       -3.1507707172    2.6810685552    4.6373410269
28   
Generated by ForceBalance from scan.xyz: Frame 18 of 24
C        3.1772581639   -2.2502974425   -0.2108319486
C        0.5592106735    1.6192388625    3.2412226031
C        0.9293291219    1.0684073629    1.9948322556
C        3.5760199209   -3.5452086589    0.0936908566
C       -1.4197313863    0.6148971545    1.4457768274
C        1.3325362832   -4.0167352750    0.9120246583
C        1.8662396410   -1.7948228603    0.0301330000
C       -0.7847465353    1.6579005712    3.5486435785
C       -1.7490719579    1.1695786074    2.6659724319
C       -0.0480772915    0.5776501530    1.1296964207
C        0.9650019172   -2.7119808213    0.5948190943
C        2.6415161517   -4.4218375143    0.6579974252
C        1.5571898429   -0.3854906275   -0.3378255490
C       -2.8066565081    1.9478294103    4.4932215125
O        2.3580141778    0.3496984764   -0.8693496819
O       -1.3973694194    2.1453195791    4.6866646520
O       -3.0025152665    1.3251732351    3.2091220278
O        0.2581910411    0.0206038187   -0.1094464615
F       -0.3096192084   -2.3695047378    0.8577111534
Cl       3.1181656669   -6.0548666501    1.0537245162
H        3.8793067751   -1.5488695083   -0.6496159918
H        1.3073433834    2.0067834377    3.9249161227
H        1.9748568822    1.0549780254    1.7082940228
H        4.5905173557   -3.8771408801   -0.0988574181
H       -2.1591789681    0.2157586077    0.7611306782
H        0.6005210665   -4.6883353114    1.3469320408
H       -3.1925303974    1.2852850582    5.2755826396
H       -3.3152211961    2.9180374449    4.5032543010
28   
Generated by ForceBalance from scan.xyz: Frame 19 of 24
C       -2.0154795938   -3.1736005137   -1.1558970535
C       -0.1720686433    2.4872357669    2.1205878199
C        0.1821452211    1.4362721153    1.2532244780
C       -2.7777076580   -3.3022604184   -2.3093434831
C       -0.9568620054   -0.2105922579    2.6762054239
C       -2.1646540080   -1.0309498494   -2.9370669303
C       -1.3098361669   -1.9925884604   -0.8525092059
C       -0.9196968252    2.1613657021    3.2361705821
C       -1.3011357508    0.8467857704    3.4995097005
C       -0.2065660623    0.1268929457    1.5330990071
C       -1.4073903225   -0.9358209701   -1.7723448343
C       -2.8443456900   -2.2198174399   -3.1948349367
C       -0.5408733040   -1.9693969768    0.4220171070
C       -1.9256328429    2.1152612407    5.2315679458
O       -0.5624556927   -2.8820278391    1.2198873907
O       -1.4308409071    2.9967173916    4.2128721000
O       -2.0552047313    0.8044635063    4.6521263434
O        0.2204889791   -0.8423543416    0.6196515876
F       -0.7758062857    0.2347775889   -1.5670797589
Cl      -3.7978559571   -2.3550700540   -4.6518085144
H       -1.9460712991   -3.9942684410   -0.4495031266
H        0.1204757855    3.5114230887    1.9133548729
H        0.7569859998    1.6287294086    0.3545103887
H       -3.3136469368   -4.2200718071   -2.5257343144
H       -1.2295276197   -1.2327936631    2.9081753319
H       -2.2122967235   -0.1861659768   -3.6154242924
H       -1.2052002682    2.0722677579    6.0603342603
H       -2.9061188919    2.4602248530    5.5654149516
28   
Generated by ForceBalance from scan.xyz: Frame 20 of 24
C       -2.1687873778   -3.1469763170   -1.2202255348
C       -0.4696524405    2.5379773323    2.1709074249
C       -0.2043387775    1.4851859774    1.2740129054
C       -2.7376389947   -3.3416941434   -2.4722064098
C       -0.8970790118   -0.1915476751    2.9336589669
C       -1.8623131212   -1.1823225283   -3.1751619404
C       -1.4383556227   -1.9857791325   -0.9007794248
C       -0.9512725628    2.1960255944    3.4202952638
C       -1.1604631790    0.8663913972    3.7848812408
C       -0.4211971472    0.1618989620    1.6555251221
C       -1.3025186121   -1.0193734146   -1.9104807433
C       -2.5764701911   -2.3481443970   -3.4447848346
C       -0.9036683820   -1.8841277234    0.4860347021
C       -1.5426692684    2.1500862309    5.5767119809
O       -1.1792676001   -2.6854986981    1.3557460658
O       -1.3233235074    3.0261690286    4.4601247615
O       -1.6646487950    0.8110624546    5.0665423361
O       -0.0902379661   -0.8035689749    0.6939420164
F       -0.6290685358    0.1287615226   -1.7031983817
Cl      -3.2823124193   -2.5659894544   -5.0278504326
H       -2.2799575328   -3.8972947660   -0.4443914885
H       -0.3112364421    3.5734720236    1.8879424863
H        0.1682703431    1.6863165664    0.2763658686
H       -3.2967896225   -4.2432889717   -2.6978859167
H       -1.0434517777   -1.2239311179    3.2232004697
H       -1.7345973530   -0.4053289071   -3.9208400521
H       -0.6797911143    2.2006254073    6.2551643462
H       -2.4698791370    2.4301594606    6.0806517625
28   
Generated by ForceBalance from scan.xyz: Frame 21 of 24
C       -2.3078310476   -3.1365351786   -1.3131029088
C       -0.6738911877    2.6049060411    2.2135791416
C       -0.5104444147    1.5702753318    1.2727269471
C       -2.6921184272   -3.4380523167   -2.6136110187
C       -0.9271796790   -0.1446545547    2.9862024329
C       -1.6786222693   -1.3577683951   -3.3661363633
C       -1.6049114852   -1.9592315289   -0.9938775820
C       -0.9649578262    2.2346917534    3.5132405524
C       -1.0884681084    0.8957510579    3.8831336614
C       -0.6425781600    0.2376347954    1.6607008859
C       -1.3045604045   -1.0868603681   -2.0522959723
C       -2.3693101118   -2.5379171331   -3.6352127076
C       -1.2760395105   -1.7400423620    0.4433574343
C       -1.2502818570    2.1481711023    5.7300831498
O       -1.7518610117   -2.4117339196    1.3369369191
O       -1.2068813472    3.0424855505    4.6067122198
O       -1.4076733370    0.8126012537    5.2215684108
O       -0.4135693148   -0.7032674116    0.6460029089
F       -0.6514538553    0.0742087820   -1.8477099951
Cl      -2.8411466457   -2.8916087845   -5.2801876014
H       -2.5494690141   -3.8118912128   -0.4988980318
H       -0.5813584878    3.6476460546    1.9281999652
H       -0.2797455263    1.7915334485    0.2367081853
H       -3.2319646039   -4.3513792267   -2.8390384786
H       -1.0229443486   -1.1829802424    3.2731482537
H       -1.4299754064   -0.6504263470   -4.1496653999
H       -0.3044093338    2.2146293622    6.2852762956
H       -2.1066802017    2.3983896950    6.3594562798
28   
Generated by ForceBalance from scan.xyz: Frame 22 of 24
C       -2.4529827694   -3.0498941820   -1.3500719813
C       -0.8879473482    2.6961893753    2.3237266621
C       -0.8020892002    1.7127620653    1.3192730121
C       -2.6716973280   -3.4820155216   -2.6525057980
C       -0.9009893546   -0.0939487034    2.9836744168
C       -1.4044936023   -1.5721747174   -3.4692283933
C       -1.7122921773   -1.8887588159   -1.0611052230
C       -0.9788587186    2.2532871390    3.6299341088
C       -0.9839268001    0.8945198853    3.9465992349
C       -0.8155577920    0.3605450756    1.6544395366
C       -1.1999624425   -1.1687835771   -2.1520125727
C       -2.1390337236   -2.7324484193   -3.7069500161
C       -1.5723716136   -1.5216234176    0.3774250599
C       -0.9610105944    2.0563460285    5.8588352159
O       -2.2216316227   -2.0458087597    1.2603246787
O       -1.1101022506    2.9983869133    4.7843451963
O       -1.1144094815    0.7366586920    5.3094949953
O       -0.6629993809   -0.5291085033    0.5798161803
F       -0.4964153133   -0.0326861732   -1.9793605118
Cl      -2.3992117715   -3.2519281026   -5.3554436723
H       -2.8596784189   -3.6059881087   -0.5117284309
H       -0.8858072136    3.7539349593    2.0821058357
H       -0.7170621882    1.9914892381    0.2744472686
H       -3.2434971858   -4.3813795990   -2.8539824318
H       -0.9162801569   -1.1474265861    3.2289865492
H       -0.9940712820   -0.9800272049   -4.2797777420
H        0.0442427004    2.1536824860    6.2914209719
H       -1.7400903584    2.2304060442    6.6037795180
28   
Generated by ForceBalance from scan.xyz: Frame 23 of 24
C       -2.5864367584   -2.9278985578   -1.4038742589
C       -1.0818482152    2.7830713326    2.4710043154
C       -1.0660953462    1.8890568431    1.3822289828
C       -2.6865036158   -3.4856130626   -2.6728428057
C       -0.9004437996   -0.0473346392    2.8853119539
C       -1.1523659983   -1.7920180370   -3.5073986130
C       -1.7805563701   -1.8046874869   -1.1413384788
C       -1.0052105213    2.2323777894    3.7360605244
C       -0.9156627925    0.8534874796    3.9330186269
C       -0.9819845830    0.5164694229    1.5990338951
C       -1.0726152619   -1.2580732422   -2.2234858748
C       -1.9611585534   -2.9068511935   -3.7197124159
C       -1.7774675746   -1.2984961736    0.2621913282
C       -0.7321427008    1.8566384599    5.9253045356
O       -2.4995797888   -1.7463111568    1.1305137240
O       -1.0379031293    2.8735015276    4.9576968874
O       -0.8857867185    0.5793243790    5.2831111138
O       -0.8954208515   -0.2803973877    0.4468432713
F       -0.2829234882   -0.1776560803   -2.0744798342
Cl      -2.0677520894   -3.5874471013   -5.3263730375
H       -3.1399562497   -3.3516851956   -0.5723866675
H       -1.1525462730    3.8554192543    2.3220807470
H       -1.1088393115    2.2570475290    0.3625690930
H       -3.3129419619   -4.3523258767   -2.8539124058
H       -0.8457171609   -1.1168598091    3.0418029175
H       -0.5886718145   -1.3337247671   -4.3125639402
H        0.3086302083    1.9716447143    6.2577821267
H       -1.4330983762    1.9281310981    6.7594500879
28   
Generated by ForceBalance from scan.xyz: Frame 24 of 24
C        1.1412251344   -3.3561628215   -1.6262884844
C        0.1864244003    2.4373992952    2.3729840342
C        0.4375767100    1.6759074220    1.2136719158
C        1.3775246892   -3.9899856792   -2.8403307870
C       -1.1601406721   -0.0499723696    1.9192184504
C        0.7291103472   -1.9516962442   -3.9996045454
C        0.6970759825   -2.0231917241   -1.5525103413
C       -0.7265493898    1.9249916762    3.2741482236
C       -1.3814674547    0.7123301551    3.0493734189
C       -0.2225547379    0.4690630643    1.0088196408
C        0.5017674571   -1.3455753315   -2.7662953686
C        1.1660734659   -3.2747608677   -4.0238765027
C        0.4826994264   -1.4660789306   -0.1849985594
C       -1.9510505054    1.4457823467    5.0835277642
O        0.6919823787   -2.0983150722    0.8308937860
O       -1.1738982263    2.4785011925    4.4569379253
O       -2.2589148465    0.4612496601    4.0814916276
O        0.0250413859   -0.1856048163   -0.2081412212
F        0.0845158165   -0.0662737994   -2.7969633719
Cl       1.4539779067   -4.0481760460   -5.5650598632
H        1.2963479955   -3.8841851890   -0.6911666630
H        0.6859469457    3.3845438170    2.5475574310
H        1.1432320805    2.0231588887    0.4663079995
H        1.7188205122   -5.0188917571   -2.8756748099
H       -1.6655572649   -0.9928855392    1.7495620711
H        0.5637019468   -1.3876151368   -4.9109508253
H       -1.3582712085    0.9768312563    5.8808627536
H       -2.8795688647    1.8730824235    5.4669015197
