35

C      3.43335   -2.55622   -6.11901
C      2.42754   -2.22903   -7.02897
C      3.10964   -2.72763   -4.76989
C      1.10523   -2.07315   -6.59873
C      1.40915   -3.70590   -0.94437
C      1.94444   -3.88864   -2.19681
C      0.68519   -2.06602   -2.13087
C      1.79286   -2.58892   -4.32785
C      0.77593   -2.25133   -5.24948
C     -4.29561   -3.18060   -3.05471
C     -2.90890   -4.61587   -4.60704
C     -2.86286   -2.06871   -4.79818
C     -1.59464   -2.03784   -5.63993
C     -2.99012   -3.27985   -3.85564
N      0.62918   -2.56402   -0.91308
N      1.47348   -2.82892   -2.96481
O     -0.47980   -2.12305   -4.74068
H      4.46185   -2.66858   -6.44862
H      2.66489   -2.08758   -8.07983
H      3.88130   -2.96484   -4.04331
H      0.33497   -1.81822   -7.31735
H      1.53266   -4.33142   -0.06965
H      2.57046   -4.65997   -2.62089
H      0.18967   -1.17112   -2.47782
H     -5.16955   -3.22868   -3.71679
H     -4.34987   -2.23997   -2.49530
H     -4.37746   -4.00138   -2.33428
H     -3.68844   -4.68587   -5.37681
H     -3.04822   -5.45467   -3.91689
H     -1.93794   -4.75461   -5.09312
H     -2.91079   -1.14696   -4.20600
H     -3.71657   -2.04376   -5.48947
H     -1.55583   -2.87738   -6.34438
H     -1.53834   -1.10387   -6.21400
H     -2.15371   -3.23801   -3.14894
