39

C      2.85483   -1.51894    1.89890
C      1.68012   -1.18328   -0.18609
C     -0.72528    3.96214    1.94179
C      0.56621    3.63988    3.95879
C      1.74756   -1.04885    2.60463
C      0.56346   -0.70948    0.50553
C     -1.00142    2.59422    1.88582
C      0.29833    2.27196    3.91779
C      2.83742   -1.58865    0.49605
C      0.06127    4.50186    2.97058
C      0.61372   -0.64110    1.89797
C     -0.47949    1.76152    2.87557
C      4.05125   -2.06525   -0.26833
C      0.31941    5.98985    3.03769
C      5.16522   -1.01854   -0.34514
C     -0.51599    6.69982    4.10613
O     -1.99551   -0.19894    1.95486
O     -0.73353   -0.53241    4.17150
O      5.71739   -0.85362    0.96522
O     -0.03282    6.29944    5.39278
S     -0.80487   -0.00483    2.79924
H      3.74529   -1.83128    2.43496
H      1.64557   -1.24880   -1.27139
H     -1.13160    4.61873    1.17547
H      1.15399    4.05252    4.77237
H      1.74845   -1.01322    3.68968
H     -0.34123   -0.41800   -0.01898
H     -1.62390    2.17643    1.10068
H      0.66799    1.60659    4.69203
H      4.46775   -2.96541    0.19726
H      3.76595   -2.33252   -1.29132
H      1.37569    6.18670    3.25312
H      0.09549    6.45036    2.06959
H      5.93834   -1.36506   -1.04643
H      4.75746   -0.06951   -0.72132
H     -0.41425    7.78772    3.98081
H     -1.57571    6.43545    3.98454
H      6.31600   -0.09177    0.95427
H     -0.67111    6.58160    6.06490
