19

C     -5.06788   -0.07835   -4.48580
C     -4.02454   -0.57684   -3.64478
C     -5.24430    1.27561   -4.40320
C     -3.40954    0.42252   -2.92028
C     -1.74787   -0.84205   -1.65055
C     -0.61587   -0.81077   -0.63153
C     -1.93165    1.64047   -1.39690
N     -2.35097    0.36665   -1.98653
O     -2.10038   -1.90824   -2.14633
S     -4.12838    1.98949   -3.28277
H     -5.66504   -0.71510   -5.13072
H     -3.73724   -1.61367   -3.57166
H     -5.95354    1.90511   -4.92436
H     -0.94234   -0.42364    0.33880
H      0.23192   -0.20853   -0.97307
H     -0.28400   -1.84067   -0.50367
H     -2.76228    2.10309   -0.85295
H     -1.59492    2.33092   -2.17762
H     -1.11282    1.49068   -0.70159
