19

C     -4.31048    0.50960   -4.61974
C     -3.07955    0.28329   -3.92867
C     -5.26260    1.10003   -3.82774
C     -3.11554    0.69322   -2.61982
C     -1.84126   -0.49525   -0.89239
C     -2.74099   -1.69226   -1.14560
C     -1.28244    1.84675   -1.45716
N     -2.08420    0.63569   -1.66503
O     -0.93944   -0.52145   -0.06012
S     -4.68184    1.38591   -2.22128
H     -4.47979    0.25040   -5.65960
H     -2.19670   -0.16664   -4.37168
H     -6.27135    1.38575   -4.09847
H     -2.56027   -2.10969   -2.14025
H     -3.79962   -1.42463   -1.09410
H     -2.51187   -2.44553   -0.39200
H     -1.91310    2.66582   -1.09509
H     -0.81458    2.15080   -2.39848
H     -0.51569    1.62258   -0.71660
