24

C     -1.96934    3.83269    2.06875
C     -1.83143    3.60713    3.44899
C     -1.35714    2.99752    1.14304
C     -1.07627    2.52665    3.88437
C     -0.58341    1.89952    1.56484
C     -0.46440    1.67125    2.95427
C     -1.57902   -1.28246    3.10386
C     -0.27744   -1.71618    5.15099
N     -0.75836   -0.71229    4.18304
O      1.18584   -0.31748    2.47076
O      1.24088    0.71908    4.78795
O     -0.02709    1.13509    0.59879
S      0.47227    0.30859    3.61398
H     -2.55760    4.67523    1.71467
H     -2.30427    4.26874    4.16802
H     -1.44885    3.16870    0.07473
H     -0.94654    2.32734    4.94370
H     -1.95874   -0.48495    2.46174
H     -2.43644   -1.77767    3.56624
H     -1.02538   -2.00772    2.49351
H      0.32214   -1.22418    5.91616
H      0.31302   -2.51023    4.67415
H     -1.15782   -2.16020    5.62272
H      0.56528    0.46700    1.01743
