28

C      4.11270   -0.63655    2.86139
C      1.98686   -1.06302   -0.17585
C      0.74528   -1.29626    0.42921
C     -2.03745   -1.77477    8.42696
C     -1.36510   -1.63787    9.64595
C      3.09975   -0.84499    0.62919
C      0.59588   -1.31558    1.81587
C     -1.33816   -1.64923    7.22825
C      0.00518   -1.37610    9.60653
C      2.97046   -0.86039    2.02766
C      1.71130   -1.09692    2.64197
C      0.03957   -1.38520    7.31078
C      0.55461   -1.30323    4.85684
N      4.99315   -0.46330    3.60797
N      0.70054   -1.25089    8.46960
N      1.66498   -1.09646    4.03988
N      0.88500   -1.23115    6.19788
O     -0.57570   -1.52209    4.43492
H      2.08228   -1.05199   -1.25716
H     -0.13111   -1.46786   -0.19010
H     -3.10484   -1.97904    8.40515
H     -1.88187   -1.73021   10.59616
H      4.07734   -0.66107    0.19449
H     -0.36823   -1.49681    2.26867
H     -1.81854   -1.74767    6.26497
H      0.57654   -1.26056   10.52597
H      2.55388   -0.92358    4.49666
H      1.84231   -1.04612    6.47899
