24

C     -1.99930    4.06782    1.85998
C     -2.05447    3.53786    3.15219
C     -1.15842    3.50246    0.90058
C     -1.25545    2.44059    3.47592
C     -0.35765    2.39712    1.21946
C     -0.40935    1.86605    2.52134
C     -1.46443   -1.20986    2.76549
C      0.19010   -1.18089    0.92810
N     -0.09147   -0.91714    2.34351
O      1.94349    0.58686    2.49347
O      0.36840    0.32575    4.48191
O      0.46114    1.81390    0.29550
S      0.59692    0.45238    3.04043
H     -2.61125    4.92511    1.59279
H     -2.70438    3.97772    3.90243
H     -1.11820    3.91853   -0.10489
H     -1.26209    2.01918    4.47557
H     -1.54871   -1.09208    3.84562
H     -1.67964   -2.25183    2.51276
H     -2.20231   -0.56555    2.26374
H      1.20529   -0.86489    0.69476
H     -0.51221   -0.66443    0.26066
H      0.10757   -2.26062    0.76894
H      0.43089    2.32949   -0.52630
