31

C     -3.06565   -0.81560   -4.58893
C     -2.87413    0.30192   -5.40864
C     -2.17761   -1.05420   -3.53866
C     -1.80766    1.17111   -5.17082
C     -1.09688   -0.20093   -3.28566
C     -0.92769    0.92194   -4.10981
C     -0.05896    2.07613   -0.22867
C      0.71465    1.59830    1.01184
C     -1.24192    1.15813   -0.57020
C      1.24900    0.16677    0.86304
C     -0.15768   -0.48519   -2.13708
N     -0.84674   -0.24476   -0.84515
O      0.41442   -2.26542    0.08104
O     -1.07576   -0.86476    1.60949
O      0.12345    1.77221   -3.82875
S     -0.12195   -0.96774    0.50121
H     -3.89594   -1.49228   -4.76854
H     -3.55365    0.50158   -6.23289
H     -2.31847   -1.91253   -2.88640
H     -1.66111    2.04430   -5.80514
H     -0.44386    3.08595   -0.04784
H      0.61239    2.14674   -1.09167
H      1.56455    2.26227    1.20449
H      0.06672    1.63924    1.89343
H     -1.96191    1.13427    0.25118
H     -1.76823    1.51535   -1.45807
H      1.95669    0.06587    0.03505
H      1.71792   -0.20273    1.77883
H      0.13024   -1.53662   -2.14825
H      0.75156    0.11654   -2.23757
H      0.13104    2.48726   -4.48437
