31

C      0.55448   -1.81333    0.82892
C      0.64541   -0.57459    0.18800
C      8.82140   -2.18330    4.38643
C      8.83611   -0.99719    3.63561
C      1.62636   -2.32531    1.56610
C      1.82652    0.16774    0.29383
C      7.66596   -2.94934    4.43148
C      7.67066   -0.64369    2.96418
C      2.81390   -1.58454    1.67400
C      2.89561   -0.32953    1.03324
C      6.53334   -2.50285    3.71428
C      4.10081   -3.10142    3.15279
C      4.08842    1.34003    2.20236
N      6.54239   -1.36992    2.99900
N      3.96306   -1.99446    2.36945
N      5.37066   -3.26488    3.75107
O      3.24061   -3.94987    3.38317
O      4.08196    0.38669    1.12984
H     -0.35877   -2.39765    0.75319
H     -0.18939   -0.19004   -0.39131
H      9.70618   -2.50536    4.92927
H      9.72147   -0.37301    3.57337
H      1.55651   -3.28545    2.05921
H      1.93595    1.13060   -0.19813
H      7.62569   -3.87346    5.00193
H      7.62514    0.26209    2.36248
H      5.07252    1.81329    2.19132
H      3.93044    0.84711    3.16927
H      3.31184    2.09961    2.05180
H      4.79396   -1.40081    2.27412
H      5.39376   -4.11238    4.30452
