31

C      1.70445   -0.68674   -0.22002
C      5.74549   -4.46636    4.40356
C      1.85299   -1.93431    0.39026
C      1.62647    0.45758    0.58122
C      5.69252   -3.11903    4.03464
C      4.57095   -5.09239    4.83943
C      1.92064   -2.03895    1.78297
C      1.69645    0.35146    1.97138
C      4.49629   -2.39943    4.09437
C      3.37266   -4.38368    4.91125
C      1.84324   -0.89935    2.59811
C      3.31732   -3.02518    4.54124
C      0.99199   -0.14000    4.93804
C      2.47512    0.10830    4.93162
C      1.89922   -1.02961    4.09854
N      2.10361   -2.33746    4.65486
H      1.65302   -0.60493   -1.30255
H      6.67891   -5.01927    4.34860
H      1.92182   -2.83309   -0.21754
H      1.51137    1.43667    0.12270
H      6.59123   -2.61758    3.68339
H      4.58693   -6.14034    5.12914
H      2.05184   -3.01646    2.23396
H      1.63264    1.25893    2.56603
H      4.47388   -1.36272    3.77911
H      2.46838   -4.87874    5.26137
H      0.55863   -0.58885    5.82636
H      0.34437    0.54680    4.40254
H      2.85996    0.97477    4.40353
H      3.04135   -0.18706    5.80827
H      1.28190   -2.93010    4.65580
