21   
Generated by ForceBalance from scan.xyz: Frame 1 of 24
C        1.5933962814    3.8924295762   -2.1139809657
C        1.5101151196    4.0577752374   -3.4690105629
C        0.9561426316    2.6896489486   -1.6543734265
C        0.4112033697    1.9850212134   -2.7200069653
C        0.9026156531    2.2938575680   -0.2469428072
C        0.4352133632   -1.9691890261   -3.5209988111
N        1.5540694185    2.9945028546    0.6131692911
N        0.8587744605   -0.6154762171   -3.1020062206
O       -0.9174131936    0.1696115686   -1.3533717862
O       -1.3412580092    0.3714198429   -3.8552030485
O        1.3855021383    2.4789462409    1.9032935565
S        0.6608824295    2.7707397834   -4.2499864845
S       -0.4277720286    0.4241248455   -2.7144179989
H        2.0732466348    4.5927101541   -1.4408704570
H        1.8880226883    4.8834495019   -4.0596617745
H        0.3076771288    1.4314995684    0.0501559993
H       -0.2104778869   -1.8744277661   -4.3943521880
H       -0.0919000476   -2.5233537323   -2.7354519168
H        1.3363043304   -2.5149092104   -3.8098289518
H        1.4845258450   -0.6503179240   -2.2958160944
H        1.9072271249    3.0880208980    2.4518626445
21   
Generated by ForceBalance from scan.xyz: Frame 2 of 24
C        1.5973736975    3.8649143831   -2.1215144565
C        1.5069570812    3.9870388354   -3.4801496223
C        0.9633597963    2.6762676763   -1.6207201453
C        0.4110427380    1.9386024261   -2.6588922183
C        0.9207681864    2.3253568130   -0.2013019101
C        0.4777447263   -1.9411033166   -3.6397446165
N        1.5745872988    3.0548072094    0.6325656337
N        0.8606778255   -0.6943387510   -2.9439180262
O       -0.8963364335    0.1603041813   -1.2326428795
O       -1.3228944349    0.2942040072   -3.7486063745
O        1.4146919332    2.5789157615    1.9395062022
S        0.6512674104    2.6758166481   -4.2144362784
S       -0.4159915961    0.3712083097   -2.6035023356
H        2.0804527978    4.5862245766   -1.4733412393
H        1.8797760204    4.7939872669   -4.0991681714
H        0.3311847799    1.4708736658    0.1271992915
H       -0.0182475682   -1.6805202791   -4.5743721125
H       -0.1824696331   -2.5860267679   -3.0482212206
H        1.4018827541   -2.4771007467   -3.8683599868
H        1.3557453779   -0.8776053405   -2.0709793865
H        1.9380375826    3.2061221075    2.4655637832
21   
Generated by ForceBalance from scan.xyz: Frame 3 of 24
C        1.5838932256    3.8473198458   -2.1869415674
C        1.4713497769    3.9591369885   -3.5448228518
C        0.9371390336    2.6754129602   -1.6636381040
C        0.3499803108    1.9410109647   -2.6834496930
C        0.9169765644    2.3316366517   -0.2424920582
C        0.5395540340   -1.8496213665   -3.7356466604
N        1.6116559942    3.0419828958    0.5744854840
N        0.7800302294   -0.7302041455   -2.8035213460
O       -1.0189279692    0.2301152061   -1.2406347222
O       -1.3335910917    0.2749145054   -3.7865627113
O        1.4637339568    2.5752214181    1.8866507652
S        0.5746384532    2.6585210377   -4.2502222911
S       -0.4852364121    0.3780969559   -2.5990847025
H        2.0922646053    4.5652676858   -1.5544537915
H        1.8462300616    4.7539211278   -4.1780876606
H        0.3073808426    1.4979534203    0.1032503439
H        0.2743366018   -1.4462522136   -4.7125910547
H       -0.2531860268   -2.5296568283   -3.4043560610
H        1.4799218569   -2.3988197413   -3.8256117247
H        1.0734216219   -1.0420213170   -1.8786817829
H        2.0194887869    3.1857013205    2.3989055738
21   
Generated by ForceBalance from scan.xyz: Frame 4 of 24
C        1.5771350480    3.7986404567   -2.2218651221
C        1.4236406709    3.8985972929   -3.5769785674
C        0.9299738183    2.6422829133   -1.6666657690
C        0.2987410015    1.9078897127   -2.6587842344
C        0.9508614293    2.3063086107   -0.2441915683
C        0.6512792322   -1.7663000189   -3.6984456602
N        1.6837786124    3.0073883093    0.5467708017
N        0.6932553563   -0.7858103081   -2.5972455690
O       -1.1244069315    0.2732699821   -1.1782939144
O       -1.3621556270    0.2194450081   -3.7384923891
O        1.5725835172    2.5464699881    1.8647610570
S        0.4836340800    2.6058830395   -4.2396491388
S       -0.5534593926    0.3569619917   -2.5266406464
H        2.1168100677    4.5146534562   -1.6134679545
H        1.7913008328    4.6804827587   -4.2301684778
H        0.3380226992    1.4852560140    0.1257908499
H        0.6673793842   -1.2369886821   -4.6516489358
H       -0.2310242423   -2.4140372155   -3.6695483308
H        1.5575451588   -2.3721579095   -3.6230690004
H        0.7616372381   -1.2173296560   -1.6768757842
H        2.1565853764    3.1480030527    2.3557187720
21   
Generated by ForceBalance from scan.xyz: Frame 5 of 24
C        1.5574876955    3.7620630281   -2.2792355185
C        1.3517058735    3.8912914646   -3.6256939088
C        0.9112828051    2.6072952012   -1.7224262343
C        0.2278771420    1.9037493525   -2.7016011150
C        0.9779079357    2.2317737603   -0.3122190233
C        0.8086667327   -1.6062339461   -3.6364949987
N        1.7377772887    2.9067229633    0.4756856827
N        0.5652101860   -0.7792606738   -2.4409181106
O       -1.3236432256    0.3581867613   -1.2356755928
O       -1.4033329108    0.2063452209   -3.7991314906
O        1.6688144869    2.4054547001    1.7813957613
S        0.3625245627    2.6290817411   -4.2749061703
S       -0.6658302873    0.3796515192   -2.5458630644
H        2.1369719019    4.4547272249   -1.6803941709
H        1.7120897300    4.6764987226   -4.2789804892
H        0.3748607898    1.4015240462    0.0541005429
H        1.1300977697   -0.9642056910   -4.4589043788
H       -0.0698778070   -2.1756955824   -3.9550178113
H        1.6279812846   -2.2882370521   -3.3966867940
H        0.3775847496   -1.3280121374   -1.6025574043
H        2.2692704382    2.9911765115    2.2716227887
21   
Generated by ForceBalance from scan.xyz: Frame 6 of 24
C        1.5550391724    3.6895068499   -2.3382450459
C        1.2801719224    3.8472953079   -3.6700639979
C        0.9075479056    2.5433591682   -1.7677146837
C        0.1575279177    1.8737143138   -2.7214579316
C        1.0292332839    2.1341700949   -0.3711849729
C        0.9311093051   -1.4484104672   -3.4030712351
N        1.8207666888    2.7881550567    0.4027399774
N        0.3847063131   -0.7611974603   -2.2198541966
O       -1.5628709867    0.4795248619   -1.2606885302
O       -1.4734523188    0.1695244132   -3.8002980243
O        1.8035280231    2.2544272191    1.6967611181
S        0.2273747625    2.6218394352   -4.2877306585
S       -0.8087855277    0.4027460470   -2.5149109143
H        2.1871228687    4.3544718217   -1.7616001387
H        1.6315737614    4.6308426910   -4.3302668318
H        0.4423886488    1.2933654375   -0.0026279777
H        1.4383805998   -0.7168837973   -4.0366471207
H        0.1666930358   -1.9624089193   -3.9942201377
H        1.6766717282   -2.1652845171   -3.0514126342
H        0.0004232675   -1.3994600284   -1.5225991935
H        2.4214730837    2.8292547314    2.1781032161
21   
Generated by ForceBalance from scan.xyz: Frame 7 of 24
C        1.5617120097    3.5926887636   -2.4128152928
C        1.2538363231    3.7558064943   -3.7370358664
C        0.8991942328    2.4654621918   -1.8226245552
C        0.1090091126    1.8126249038   -2.7558314703
C        1.0428227503    2.0542741947   -0.4285957085
C        1.0672498252   -1.2723501360   -3.2652227169
N        1.8620561952    2.6960154771    0.3265826704
N        0.2667146274   -0.7762937953   -2.1336415211
O       -1.7010920297    0.5113541123   -1.2854165216
O       -1.5486066767    0.1176962516   -3.8012007208
O        1.8662002120    2.1639822972    1.6209926927
S        0.1550541634    2.5562669965   -4.3245303150
S       -0.9065813532    0.3826210647   -2.5085811583
H        2.2275331634    4.2410766097   -1.8555950181
H        1.6089611868    4.5281184390   -4.4084838439
H        0.4528756193    1.2207724022   -0.0486897610
H        1.6319854664   -0.4383378253   -3.6889456683
H        0.4618117678   -1.7336163858   -4.0528598974
H        1.7823141109   -1.9986990789   -2.8725487497
H       -0.1964234061   -1.5130406217   -1.6002274697
H        2.5027759226    2.7303178415    2.0879558027
21   
Generated by ForceBalance from scan.xyz: Frame 8 of 24
C        1.5734708253    3.5149872334   -2.4629768644
C        1.2461031262    3.6634108460   -3.7843659653
C        0.8879753047    2.4186954336   -1.8413474460
C        0.0636420117    1.7727585978   -2.7497879567
C        1.0450791875    2.0235139136   -0.4438822985
C        1.1548169715   -1.1027886064   -3.1528636652
N        1.9032341299    2.6463753301    0.2835929659
N        0.1676572968   -0.8061380393   -2.1027761455
O       -1.7604219155    0.5334114585   -1.2236983435
O       -1.6683057679    0.1223586661   -3.7323747114
O        1.9151419407    2.1363561674    1.5862199005
S        0.1021271763    2.4868424878   -4.3313663875
S       -0.9873939573    0.3784202513   -2.4562366629
H        2.2674355752    4.1536345238   -1.9293722457
H        1.6098613751    4.4144049641   -4.4751742273
H        0.4338842981    1.2166907171   -0.0399610340
H        1.7478774308   -0.2064115585   -3.3440130076
H        0.7018889426   -1.4449102683   -4.0909223502
H        1.8244134010   -1.8747144742   -2.7672002984
H       -0.3249263622   -1.6248357930   -1.7445777899
H        2.5817951776    2.6862105470    2.0304171598
21   
Generated by ForceBalance from scan.xyz: Frame 9 of 24
C        1.5809999292    3.4575098904   -2.4917602038
C        1.2567318685    3.5806248721   -3.8165308992
C        0.8667560372    2.3955423523   -1.8432173564
C        0.0235764070    1.7509711794   -2.7356849716
C        1.0209302321    2.0246727477   -0.4385231431
C        1.2003809528   -0.9676225710   -3.1328625155
N        1.9056779381    2.6355451143    0.2672691996
N        0.0813141475   -0.8634402353   -2.1827745790
O       -1.7439725808    0.5279789697   -1.1349351831
O       -1.8214922116    0.1828295581   -3.6485086025
O        1.9142977393    2.1548214601    1.5801744713
S        0.0790615680    2.4240223674   -4.3340202049
S       -1.0493572554    0.3814150121   -2.4132572244
H        2.2910164802    4.0915964052   -1.9740901629
H        1.6370690846    4.3066416347   -4.5249228132
H        0.3863382262    1.2471259353   -0.0128362465
H        1.8452686317   -0.0946143711   -3.0279681510
H        0.8825370267   -1.0636297624   -4.1787958635
H        1.7793920167   -1.8508967995   -2.8536666507
H       -0.4369975999   -1.7324177999   -2.0526086947
H        2.6030895511    2.6920700869    2.0057135476
21   
Generated by ForceBalance from scan.xyz: Frame 10 of 24
C        1.5752236077    3.4253971916   -2.5066936845
C        1.2435191655    3.5165954023   -3.8319122648
C        0.8551027447    2.3888814427   -1.8239104659
C       -0.0015125043    1.7291214664   -2.6930606215
C        1.0223177184    2.0569122161   -0.4105203345
C        1.2287674570   -0.9083341567   -3.0742072139
N        1.9309790811    2.6702580618    0.2623659460
N        0.0043326367   -0.9414779146   -2.2558528220
O       -1.6615890142    0.5223571520   -1.0006175084
O       -1.9627403005    0.2218619076   -3.5012714524
O        1.9492369523    2.2318331128    1.5892801311
S        0.0487962208    2.3605247999   -4.3091079858
S       -1.0816022485    0.3745755740   -2.3338440501
H        2.2938322786    4.0668366103   -2.0104727221
H        1.6232195383    4.2219615193   -4.5611887101
H        0.3764136703    1.3081865528    0.0485645312
H        1.8902586781   -0.1208933115   -2.7136639799
H        1.0458098275   -0.7682290531   -4.1473700841
H        1.7332046808   -1.8661367796   -2.9250969254
H       -0.5515452642   -1.7825637025   -2.4141747539
H        2.6566403056    2.7660090786    1.9873341773
21   
Generated by ForceBalance from scan.xyz: Frame 11 of 24
C        1.5640505116    3.4094612326   -2.5275736225
C        1.2204907900    3.4852183654   -3.8502742939
C        0.8485751983    2.3839995520   -1.8228779040
C       -0.0193245756    1.7145399201   -2.6738456226
C        1.0359369616    2.0776421747   -0.4057630650
C        1.2712812197   -0.8991197458   -2.9658969113
N        1.9707098067    2.6864898889    0.2350218305
N       -0.0613670268   -1.0123567445   -2.3458763338
O       -1.5722183057    0.5035800629   -0.9271080232
O       -2.0539840363    0.2310112774   -3.4060285143
O        2.0064058752    2.2777751963    1.5707996721
S        0.0187202714    2.3257069589   -4.2997067701
S       -1.0944811731    0.3575406044   -2.3000187811
H        2.2874779794    4.0564687152   -2.0458442251
H        1.5922489781    4.1824400409   -4.5913182281
H        0.3827299217    1.3541489091    0.0820291767
H        1.8981979947   -0.2279301708   -2.3789579716
H        1.2547059143   -0.5600102652   -4.0093743700
H        1.7195114745   -1.8951046588   -2.9248420579
H       -0.6159836819   -1.7425104277   -2.7943662505
H        2.7333464167    2.8047065385    1.9425174787
21   
Generated by ForceBalance from scan.xyz: Frame 12 of 24
C        1.4298777785    3.5676512460   -2.4696811137
C        1.0127874681    3.7783329877   -3.7564485448
C        0.8612214491    2.3857984310   -1.8877203325
C        0.0177233601    1.7471708366   -2.7855923371
C        1.1335169464    1.9264782138   -0.5270954346
C       -2.5046574220    2.2625352956   -1.3605433781
N        1.7894777228    2.6959929342    0.2680103649
N       -2.3588228926    0.8357683423   -1.6970737135
O       -1.3695511296   -0.1441061051   -3.8653170497
O       -0.2849356837   -0.6320602274   -1.6141396283
O        1.9583438663    2.0911664254    1.5176122506
S       -0.0749490425    2.5574376101   -4.3193936415
S       -0.9657112789    0.2916585389   -2.5313326049
H        2.1257088457    4.2071192740   -1.9395367093
H        1.3062610576    4.5801478890   -4.4231828463
H        0.7929975001    0.9390395252   -0.2142403248
H       -2.4986705145    2.8594814116   -2.2737084129
H       -1.7350616264    2.6427677135   -0.6781413839
H       -3.4861477907    2.3786679561   -0.8937093079
H       -2.4077501588    0.2543219529   -0.8603845980
H        2.4681516651    2.7525809953    2.0145548887
21   
Generated by ForceBalance from scan.xyz: Frame 13 of 24
C        1.4490240321    3.5686423945   -2.4448699621
C        1.0172531558    3.7899905982   -3.7249787643
C        0.8859800586    2.3818858709   -1.8671969169
C        0.0327415463    1.7501883256   -2.7606060809
C        1.1705870864    1.9076921974   -0.5144109085
C       -2.5834529674    2.2602641790   -1.4533739041
N        1.8259365946    2.6703503714    0.2877613460
N       -2.2939769979    0.8214048222   -1.5658800776
O       -1.4448204193   -0.0678395600   -3.8203308345
O       -0.2558548728   -0.6597268286   -1.6390162020
O        2.0090813147    2.0474226913    1.5266530280
S       -0.0782791269    2.5740242557   -4.2849282800
S       -0.9622563829    0.3017118752   -2.4923051449
H        2.1507539252    4.2037548407   -1.9171716520
H        1.3030120802    4.5972406765   -4.3884845146
H        0.8416445512    0.9127255321   -0.2123364359
H       -2.7592218174    2.6760500787   -2.4472170685
H       -1.7910137067    2.8340327605   -0.9585445237
H       -3.5105176880    2.3579486551   -0.8830817139
H       -2.1835788645    0.3864318376   -0.6504850010
H        2.5177115677    2.7049090322    2.0299596387
21   
Generated by ForceBalance from scan.xyz: Frame 14 of 24
C        1.4648612202    3.5710224315   -2.4031380637
C        1.0207793585    3.8253056698   -3.6727685528
C        0.8979218743    2.3759306981   -1.8461399163
C        0.0292763312    1.7710367934   -2.7430791513
C        1.1966953143    1.8669121033   -0.5090651942
C       -2.7184641286    2.2357768256   -1.5941460406
N        1.8561922684    2.6093211024    0.3085072488
N       -2.2683944809    0.8390128006   -1.4954561282
O       -1.5380575490    0.0298058416   -3.8031650259
O       -0.2681411562   -0.6611237130   -1.6877780898
O        2.0527013325    1.9521612744    1.5278384162
S       -0.0935352416    2.6320613833   -4.2453524445
S       -0.9892836325    0.3341237019   -2.4844461309
H        2.1785805126    4.1875214048   -1.8694015636
H        1.3062410971    4.6445560643   -4.3214942413
H        0.8769936701    0.8615675414   -0.2319064967
H       -3.0043960885    2.4476599208   -2.6262812835
H       -1.9627146937    2.9623478958   -1.2717329622
H       -3.6106927516    2.3385501323   -0.9720257364
H       -2.0337322262    0.5700118587   -0.5407065127
H        2.5625965725    2.5975257471    2.0453271928
21   
Generated by ForceBalance from scan.xyz: Frame 15 of 24
C        1.5100821783    3.5694449708   -2.3680205868
C        1.0481787518    3.8507977505   -3.6254043907
C        0.9333233605    2.3756237914   -1.8178170985
C        0.0381879577    1.7989271042   -2.7071566744
C        1.2528641773    1.8403163287   -0.4956947276
C       -2.8826788908    2.1785665211   -1.7197155040
N        1.9384241570    2.5604692175    0.3203448324
N       -2.2435982416    0.8881299566   -1.4250920711
O       -1.6084645965    0.1074101990   -3.7516528306
O       -0.2752461618   -0.6305153904   -1.6842578933
O        2.1532084175    1.8792216176    1.5236514037
S       -0.0990361317    2.6864757387   -4.1930120607
S       -1.0076315749    0.3790956928   -2.4485179760
H        2.2444926565    4.1650374785   -1.8385803212
H        1.3361751371    4.6745355183   -4.2672247375
H        0.9280254044    0.8336132107   -0.2293256423
H       -3.2484542037    2.1626285672   -2.7479262644
H       -2.2098975567    3.0350113805   -1.5850549438
H       -3.7428427056    2.2844193681   -1.0548985853
H       -1.9270032314    0.7974634153   -0.4607875880
H        2.6816714889    2.5094105375    2.0411729946
21   
Generated by ForceBalance from scan.xyz: Frame 16 of 24
C        1.5978134383    3.5482220679   -2.2958206982
C        1.1100690341    3.8559607453   -3.5367711062
C        1.0151948213    2.3564352989   -1.7462990545
C        0.0883876247    1.8068988488   -2.6207492989
C        1.3631800607    1.8023750840   -0.4387292628
C       -3.0664462776    2.0415215264   -1.8565859497
N        2.0893187775    2.5014566843    0.3605636709
N       -2.2252732442    0.9406811381   -1.3685574251
O       -1.5789654765    0.1118055379   -3.6607252833
O       -0.2579538269   -0.5853073389   -1.5678457849
O        2.3271003295    1.8062772405    1.5517831039
S       -0.0705214079    2.7188842210   -4.0910643284
S       -0.9832340440    0.4059784877   -2.3601810836
H        2.3557928939    4.1231875525   -1.7769365666
H        1.3963129810    4.6834993374   -4.1743910841
H        1.0233856293    0.8015672835   -0.1700082079
H       -3.4442373745    1.7773364339   -2.8450164906
H       -2.5341198330    3.0000838622   -1.9123345508
H       -3.9164043688    2.1395637208   -1.1775891565
H       -1.8886795875    1.0482090472   -0.4134015921
H        2.8846585949    2.4213537119    2.0567502350
21   
Generated by ForceBalance from scan.xyz: Frame 17 of 24
C        1.5566242797    3.3575510856   -2.3165646166
C        2.0280266503    3.3550444800   -3.6021570895
C        1.2350519260    2.0432625717   -1.8400468877
C        1.4795086808    1.0902511967   -2.8165251670
C        0.7129472178    1.7473093116   -0.5085725939
C       -1.2314507866   -0.5040780079   -3.7102602881
N        0.4574210116    2.7227525895    0.2892315320
N       -0.4252005194   -0.7505131121   -2.5032971514
O        1.6811529843   -1.2066728885   -3.9979370505
O        1.8012882391   -1.1815727798   -1.4498400865
O       -0.0308013823    2.2497950577    1.5125485876
S        2.1014653793    1.7693824908   -4.2889227355
S        1.2523941093   -0.6627685062   -2.7041641838
H        1.4394700377    4.2477867434   -1.7099479973
H        2.3484350105    4.2061170127   -4.1907331071
H        0.5555218600    0.7116289321   -0.2091284167
H       -1.0470384653    0.5167652011   -4.0537142801
H       -2.2837684804   -0.5794825924   -3.4273802242
H       -1.0132143764   -1.2025403442   -4.5252161202
H       -0.6273251251   -1.6399850774   -2.0451989626
H       -0.1720909798    3.0653701115    2.0213642802
21   
Generated by ForceBalance from scan.xyz: Frame 18 of 24
C        1.6121813664    3.4088124087   -2.2527350804
C        2.0484620214    3.4243266030   -3.5502699088
C        1.2650012751    2.0933092853   -1.7973938721
C        1.4594352244    1.1560333219   -2.7995274408
C        0.7666761832    1.7856559007   -0.4596539956
C       -1.2715767544   -0.7126250284   -3.8714590325
N        0.5487268304    2.7511702888    0.3609919232
N       -0.5225980863   -0.6547407377   -2.6039724194
O        1.6203483403   -1.1280922471   -4.0182319833
O        1.6496846431   -1.1249069032   -1.4583958838
O        0.0789160919    2.2648891913    1.5867461935
S        2.0602813749    1.8529550969   -4.2729773413
S        1.1641082825   -0.5899982548   -2.7334441399
H        1.5376348319    4.2870667742   -1.6223858411
H        2.3790376021    4.2792749868   -4.1274026060
H        0.5988717858    0.7481757743   -0.1721659748
H       -1.0931267710    0.2078587094   -4.4324723263
H       -2.3345361607   -0.7561039517   -3.6231447838
H       -0.9972153078   -1.5689780703   -4.4954538404
H       -0.7350081889   -1.4278081144   -1.9727263097
H       -0.0362864977    3.0736855830    2.1126264948
21   
Generated by ForceBalance from scan.xyz: Frame 19 of 24
C        1.6334155778    3.4583793705   -2.1892595531
C        1.9944304779    3.4861056788   -3.5086847988
C        1.2876728953    2.1424640765   -1.7310172483
C        1.4113135985    1.2153511373   -2.7537795441
C        0.8587953313    1.8363472208   -0.3684589018
C       -1.2777027402   -0.9295939803   -4.0582594449
N        0.6779487105    2.8043125556    0.4586416483
N       -0.6553134765   -0.5476368846   -2.7778972304
O        1.5812632530   -1.0768000889   -3.9634716467
O        1.3872546667   -1.0462559184   -1.4017518728
O        0.2742894892    2.3196863005    1.7088809065
S        1.9404709184    1.9237506768   -4.2497303099
S        1.0371602283   -0.5181349017   -2.7240457076
H        1.6140871868    4.3276417488   -1.5425727201
H        2.3128919747    4.3421951905   -4.0908324271
H        0.7148831272    0.7988631150   -0.0683844483
H       -1.0093076002   -0.1969499161   -4.8218708519
H       -2.3603672004   -0.8916768554   -3.9157690442
H       -0.9813272446   -1.9248547675   -4.4035346472
H       -0.9619119998   -1.1215171859   -1.9931840597
H        0.1785596077    3.1301250618    2.2361032802
21   
Generated by ForceBalance from scan.xyz: Frame 20 of 24
C        1.6573751937    3.4965027368   -2.1255415040
C        1.9680104166    3.5534352816   -3.4559763513
C        1.3044925587    2.1746324711   -1.6868615076
C        1.3718420744    1.2725520541   -2.7374763628
C        0.9266364630    1.8508135123   -0.3124347687
C       -1.2505604740   -1.1160952648   -4.1945024719
N        0.7837267213    2.8096745368    0.5328367987
N       -0.7302955238   -0.4397316511   -2.9913292796
O        1.5658519836   -1.0202166634   -3.9544927195
O        1.1796020876   -0.9849125405   -1.4121402312
O        0.4296773727    2.3112154679    1.7930283576
S        1.8562942567    2.0118892072   -4.2338914444
S        0.9460679324   -0.4501011390   -2.7576828754
H        1.6818399618    4.3475211559   -1.4552858947
H        2.2848378466    4.4177597663   -4.0267181091
H        0.7892250608    0.8102187507   -0.0211632752
H       -0.8147051344   -0.6562507654   -5.0819684807
H       -2.3305789645   -0.9509927922   -4.2135073770
H       -1.0394415209   -2.1902948879   -4.2140648650
H       -1.1590961666   -0.7687840698   -2.1277404514
H        0.3582714772    3.1156764341    2.3331061657
21   
Generated by ForceBalance from scan.xyz: Frame 21 of 24
C        1.6630351121    3.5348503102   -2.0879046101
C        1.9454676299    3.6122664869   -3.4232819812
C        1.3091177456    2.2079855079   -1.6640048607
C        1.3452894912    1.3242589230   -2.7325783904
C        0.9639936710    1.8668682504   -0.2846142722
C       -1.2309933130   -1.2864757540   -4.1672795062
N        0.8524737934    2.8157574476    0.5766730964
N       -0.7463032974   -0.3481199150   -3.1357323535
O        1.5762543069   -0.9807543152   -3.9410619479
O        1.0783925942   -0.9341460984   -1.4245476220
O        0.5291226694    2.3035840529    1.8394541195
S        1.8028980961    2.0862298284   -4.2259169745
S        0.9092024568   -0.3948130594   -2.7782307918
H        1.7095326092    4.3735565690   -1.4035474286
H        2.2580586857    4.4837013484   -3.9855322209
H        0.8239158888    0.8236941953   -0.0047563381
H       -0.6749142614   -1.1176407368   -5.0891055967
H       -2.2835906028   -1.0522409420   -4.3438744543
H       -1.1318238499   -2.3391518753   -3.8797046950
H       -1.2569560808   -0.4276933559   -2.2573772539
H        0.4811969765    3.1011468530    2.3922204384
21   
Generated by ForceBalance from scan.xyz: Frame 22 of 24
C        1.6531606640    3.5408275231   -2.0356315112
C        1.9290191947    3.6297480502   -3.3716887265
C        1.2814710096    2.2143771829   -1.6257978262
C        1.2949609379    1.3438104045   -2.7070153789
C        0.9456900471    1.8641033111   -0.2457993298
C       -1.2606088626   -1.4293092784   -4.0478495755
N        0.8670557472    2.8066781303    0.6261377577
N       -0.7695758827   -0.2844610067   -3.2523743681
O        1.5733405314   -0.9877781821   -3.8841331233
O        0.9470771205   -0.9133936657   -1.4079348245
O        0.5461444467    2.2902834536    1.8873746053
S        1.7544728019    2.1183532695   -4.1936806917
S        0.8536610708   -0.3724039427   -2.7693457354
H        1.7170389320    4.3700228679   -1.3412625866
H        2.2508161788    4.5036702288   -3.9248966754
H        0.7841164019    0.8215342800    0.0235954045
H       -0.6355421908   -1.5317608878   -4.9345981579
H       -2.2794625618   -1.1890144531   -4.3604857278
H       -1.2611042940   -2.3761775698   -3.4953824109
H       -1.3368599080   -0.1207525398   -2.4205826799
H        0.5252720389    3.0830081736    2.4487705734
21   
Generated by ForceBalance from scan.xyz: Frame 23 of 24
C        1.6568732375    3.5385991694   -2.0651137823
C        1.9505113958    3.6661137763   -3.3946519073
C        1.2750403290    2.2025599196   -1.6999536376
C        1.2968999165    1.3644070476   -2.8072274371
C        0.9220801749    1.8112176158   -0.3352110760
C       -1.3090230123   -1.4851082307   -3.9788026822
N        0.8386908440    2.7271034828    0.5643897182
N       -0.7495521213   -0.2217972316   -3.4492346998
O        1.5990950891   -0.9548855188   -4.0282183206
O        0.9263257408   -0.9309058260   -1.5729006530
O        0.4998050835    2.1750129706    1.8049151865
S        1.7791264915    2.1814935579   -4.2632799558
S        0.8613988715   -0.3495232765   -2.9200882069
H        1.7148929711    4.3466245978   -1.3457592470
H        2.2808778351    4.5554662958   -3.9174718300
H        0.7515087480    0.7615937821   -0.1005922402
H       -0.6931299572   -1.8112313003   -4.8172061778
H       -2.3131765767   -1.2638685294   -4.3474315027
H       -1.3617650943   -2.2850539148   -3.2310090319
H       -1.3035074322    0.1340182875   -2.6685866298
H        0.4777973424    2.9501712102    2.3903607305
21   
Generated by ForceBalance from scan.xyz: Frame 24 of 24
C        1.6041882008    3.8904082047   -2.1021247180
C        1.5269977550    4.0988213594   -3.4518869667
C        0.9631940157    2.6749517824   -1.6841675257
C        0.4225046642    2.0040795919   -2.7742148200
C        0.9024238635    2.2342593735   -0.2903423751
C        0.4612776482   -1.9939603783   -3.3584626565
N        1.5492139708    2.9080175948    0.5944921688
N        0.8671340389   -0.5750255409   -3.2399595476
O       -0.9176928531    0.1493304473   -1.4656911020
O       -1.3498980884    0.4284618267   -3.9517156409
O        1.3759977860    2.3518900230    1.8664368547
S        0.6796023675    2.8389888576   -4.2767162996
S       -0.4273944926    0.4498306554   -2.8181911591
H        2.0823985870    4.5680313550   -1.4050802850
H        1.9110196412    4.9412080813   -4.0143572435
H        0.3071690289    1.3619560690   -0.0245659310
H       -0.2994095108   -2.0729255249   -4.1365719152
H        0.0736875639   -2.4125456031   -2.4226618639
H        1.3408028217   -2.5578907338   -3.6767554569
H        1.5868820808   -0.4622406287   -2.5233346713
H        1.8941027310    2.9440677198    2.4365871673
