35

C      0.56186    4.04890   -2.80134
C      0.00430    2.58850   -4.64125
C      1.11369    2.97434   -2.10281
C      0.55031    1.50209   -3.95631
C     -0.00220    3.87354   -4.07522
C      1.09239    1.70451   -2.68498
C     -0.80479    0.14844    1.44132
C     -0.11399    0.73668    0.21194
C     -1.86933   -1.61649   -1.01786
C     -0.72580   -0.87974   -1.72714
C     -2.66404   -0.74801   -0.03446
C      0.35116   -0.33474   -0.78535
C     -0.56373    5.04982   -4.83771
N     -1.98611   -0.51082    1.23703
O     -0.31899    0.26125    2.56464
O      2.12060   -0.73941   -2.75684
O      2.77204    0.82869   -0.83354
S      1.77183    0.30869   -1.78042
H      0.57765    5.03973   -2.35337
H     -0.41579    2.43719   -5.63292
H      1.57436    3.11636   -1.13032
H      0.57796    0.51280   -4.40238
H     -0.77688    1.44894   -0.29264
H      0.74584    1.27952    0.60407
H     -2.55891   -1.98075   -1.78857
H     -1.48810   -2.49696   -0.48776
H     -0.25241   -1.55681   -2.44310
H     -1.14862   -0.04611   -2.30106
H     -2.92587    0.20717   -0.50911
H     -3.60811   -1.24250    0.20695
H      0.84191   -1.15432   -0.24596
H      0.21943    5.52821   -5.43785
H     -1.35909    4.74097   -5.52188
H     -0.96822    5.80847   -4.16173
H     -2.38775   -0.89921    2.08227
