54

C      6.24012   -0.48353   -1.54698
C      5.25733    0.11169   -2.32987
C      6.91679    0.26005   -0.57127
C      5.53348    2.21993   -1.10400
C      4.91917    1.44702   -2.10591
C      6.55348    1.60126   -0.35535
C      8.63346   -2.80506   -0.18824
C      8.11966   -1.90895    2.16204
C      8.05248   -0.40444    0.15184
C     10.09187   -2.91720    0.18874
C      9.58410   -2.01057    2.51933
C     10.27172   -3.12111    1.70403
C      1.83625    6.51408    2.19913
C      2.99809    5.92363    3.01056
C      2.23429    6.71578    0.73050
C      3.52027    4.62505    2.37922
C      2.75467    5.41305    0.10333
C      7.78730   -1.83462    0.65719
C      3.91717    4.83681    0.92014
C      4.56342    3.12801   -4.36206
C      5.11311    3.63515   -0.76773
O      8.11478   -3.41983   -1.10388
O      7.21421   -1.91195    2.97361
O      9.13711    0.13353    0.29625
O      3.10558    0.95458   -3.98101
O      2.69826    2.96466   -2.46550
O      4.34782    3.56121    0.42181
S      3.61878    2.09816   -3.21265
Cl     7.33703    2.50920    0.91750
H      6.50145   -1.52531   -1.71113
H      4.73854   -0.45053   -3.09852
H     10.53560   -3.72941   -0.39106
H     10.57501   -1.97625   -0.10344
H     10.05076   -1.04751    2.28143
H      9.66432   -2.18516    3.59432
H     11.33948   -3.13503    1.94039
H      9.86865   -4.09791    1.99554
H      1.51089    7.46450    2.63839
H      0.97706    5.83157    2.24919
H      3.81358    6.65862    3.06182
H      2.68579    5.73356    4.04372
H      1.38242    7.09004    0.15146
H      3.01452    7.48795    0.67118
H      4.38163    4.23590    2.93230
H      2.74159    3.85274    2.41163
H      1.95865    4.66041    0.06839
H      3.05866    5.59139   -0.93336
H      6.73552   -2.08915    0.53708
H      4.77059    5.53599    0.88131
H      3.83594    3.52624   -5.07269
H      5.04793    3.93852   -3.81671
H      5.29462    2.49928   -4.87160
H      6.00676    4.25676   -0.61270
H      4.52936    4.07326   -1.57825
