27   

C        2.4506189881    1.0384552110   -0.4425084401
C        1.4321089911    0.2124065322   -0.9018017995
C        0.6507468356   -4.0845349199   -1.5569796901
C        2.2679078573    1.7788021878    0.7258688780
C        1.5952384577   -2.6943461989   -0.0816760992
C        0.4730904664   -2.8253622324   -0.8622485340
C        0.2555277480    0.1343143162   -0.1500410040
C        0.1294020588    0.9621629356    1.0040153880
C        1.8483867241   -4.5990340269   -1.1526395569
C       -0.7348448637   -1.9778032921   -1.0471709078
C       -2.1387382768   -0.1132651135   -0.2078836102
C       -2.1305664495    0.1539151251    1.3009400064
N        1.1316120223    1.7460415826    1.4294833529
N       -0.8344801359   -0.6707926451   -0.5504798192
O       -1.7234988655   -2.4605738505   -1.6018475186
O        2.4461246803   -3.7577187282   -0.2524637394
O       -1.0487629630    1.0080641120    1.7253666278
Br       2.5893400312   -6.2551854882   -1.7435559756
H        3.3854442631    1.1230548497   -0.9832675268
H        1.5511462817   -0.3481440852   -1.8238937997
H       -0.0421268130   -4.5380929115   -2.2590993005
H        3.0734192316    2.4149274557    1.0743084346
H        1.7960243156   -1.8831651210    0.6078646697
H       -2.9616192748   -0.7931849692   -0.4507103902
H       -2.3021479296    0.8194771778   -0.7575756271
H       -3.0821362696    0.6133140156    1.5856694818
H       -2.0541355405   -0.8002482704    1.8323619179
27   

C        2.4625382180    0.9273080873   -0.4423235242
C        1.4287623802    0.1123430011   -0.8860386976
C        0.7507309746   -3.9726018748   -1.7138091017
C        2.2843059370    1.7138247470    0.6955725001
C        1.4512520578   -2.7821613440    0.0481165459
C        0.4406688394   -2.8329804391   -0.8773501237
C        0.2380281253    0.0936246215   -0.1516758265
C        0.1224268705    0.9610249059    0.9746514105
C        1.9178738359   -4.5019967466   -1.2427767153
C       -0.7867114330   -2.0086418702   -1.0270931651
C       -2.1654579663   -0.1158250448   -0.2029899000
C       -2.1474729049    0.1956613393    1.2965831579
N        1.1392713196    1.7340415831    1.3851792440
N       -0.8695492265   -0.6974443018   -0.5386911390
O       -1.7945065342   -2.5112702930   -1.5253022508
O        2.3689761739   -3.7795782298   -0.1690023361
O       -1.0580807032    1.0552798136    1.6869811627
Br       2.7963986935   -6.0364865684   -1.9599945340
H        3.4060223956    0.9676464908   -0.9730617332
H        1.5487269655   -0.4814977154   -1.7867759535
H        0.1602427362   -4.3455014262   -2.5448320686
H        3.1015331880    2.3418177370    1.0312361380
H        1.5209696068   -2.0669475587    0.8600267065
H       -2.9972467986   -0.7933816731   -0.4205733816
H       -2.3226529915    0.8022080941   -0.7785900230
H       -3.0941600906    0.6700625154    1.5727764452
H       -2.0739404155   -0.7425127344    1.8561543325
27   

C        2.4470794927    0.8782834931   -0.4665483068
C        1.4035747165    0.0672174953   -0.8935245308
C        0.8634447110   -3.7965080417   -1.8655005926
C        2.2775245407    1.6924399087    0.6524796822
C        1.3265356065   -2.8657767764    0.1195690725
C        0.4210063895   -2.8098804713   -0.9054660756
C        0.2096545475    0.0805656381   -0.1629247839
C        0.1064663554    0.9720823814    0.9462146163
C        2.0055160398   -4.3484614066   -1.3587812803
C       -0.8359345832   -2.0217124363   -1.0067229410
C       -2.1996074660   -0.1118037399   -0.1918129870
C       -2.1645139337    0.2277145666    1.3007897424
N        1.1323535678    1.7419415870    1.3401325485
N       -0.9099663680   -0.7043723811   -0.5339465543
O       -1.8608175294   -2.5567581415   -1.4279679523
O        2.3132485166   -3.7818240134   -0.1485191026
O       -1.0702108681    1.0935683981    1.6604928052
Br       3.0255153870   -5.7250826589   -2.1985585332
H        3.3915908223    0.8939694721   -0.9967172308
H        1.5208228022   -0.5451625908   -1.7817870226
H        0.3735709951   -4.0632457055   -2.7964710974
H        3.1022218509    2.3178581387    0.9743835469
H        1.2724590288   -2.2769969460    1.0287407309
H       -3.0369409837   -0.7892048082   -0.3871802234
H       -2.3604598409    0.7961498867   -0.7821708129
H       -3.1073198442    0.7088356358    1.5785877388
H       -2.0853110068   -0.6994994867    1.8775387323
27   

C        2.4552352891    0.7963860744   -0.4557068430
C        1.3995299350   -0.0118085736   -0.8566634628
C        0.9701237749   -3.6484002528   -1.8629585956
C        2.2943431423    1.6574676116    0.6283380176
C        1.1914135193   -3.0201275735    0.2780025072
C        0.3974508850   -2.8307478625   -0.8175879479
C        0.2004762963    0.0512890599   -0.1359629830
C        0.1093828271    0.9873082944    0.9376260817
C        2.0767176132   -4.2423614918   -1.3251232316
C       -0.8776963695   -2.0641840818   -0.8981090442
C       -2.2139325441   -0.1033388794   -0.1589545800
C       -2.1722699020    0.2925488574    1.3190309738
N        1.1465595112    1.7548657240    1.3061312573
N       -0.9336735860   -0.7269789812   -0.4819237415
O       -1.9176971618   -2.6248877223   -1.2379990768
O        2.2370263048   -3.8594521617   -0.0176979608
O       -1.0668425833    1.1578288438    1.6424469522
Br       3.2323256851   -5.4479879953   -2.2479312866
H        3.4027345045    0.7733193206   -0.9801731388
H        1.5139815735   -0.6572711104   -1.7209416522
H        0.5883332254   -3.7840659414   -2.8695481776
H        3.1284824805    2.2806588542    0.9295424457
H        1.0189651417   -2.5749887819    1.2517752281
H       -3.0620771240   -0.7742836042   -0.3278016034
H       -2.3628153981    0.7838884296   -0.7829891914
H       -3.1082811659    0.7963431313    1.5790042170
H       -2.1036256448   -0.6124601501    1.9312254042
27   

C        2.4392079841    0.7515257733   -0.4962582814
C        1.3671904593   -0.0478638700   -0.8706581176
C        1.0042181555   -3.4868661428   -1.8597472073
C        2.3018963166    1.6374892168    0.5705900452
C        1.0684362295   -3.1764234084    0.3602748619
C        0.3463587292   -2.8394739172   -0.7468406872
C        0.1758631037    0.0483561838   -0.1412410504
C        0.1099774129    1.0081943082    0.9134690315
C        2.0872964144   -4.1370614826   -1.3391411707
C       -0.9420306558   -2.0837557990   -0.7849409179
C       -2.2392644061   -0.0645924508   -0.1387277220
C       -2.1798991887    0.3608084677    1.3300080278
N        1.1619738264    1.7677976840    1.2558366588
N       -0.9738260798   -0.7212094846   -0.4560734942
O       -2.0006725493   -2.6673462019   -1.0039991188
O        2.1514069575   -3.9483408671    0.0180544702
O       -1.0562921708    1.2122510320    1.6262010106
Br       3.3312784647   -5.1751640046   -2.3467242124
H        3.3814670315    0.7019212713   -1.0281759477
H        1.4642913369   -0.7108602021   -1.7227754592
H        0.6942324710   -3.4796852462   -2.8994225568
H        3.1485477409    2.2533681786    0.8511952414
H        0.8205254764   -2.8811705509    1.3738287044
H       -3.1035581302   -0.7184720508   -0.2913379610
H       -2.3725518884    0.8129280068   -0.7797998829
H       -3.1043777308    0.8876390771    1.5854550803
H       -2.1236073336   -0.5323219064    1.9606121529
27   

C        2.4465559687    0.6688632772   -0.5517157214
C        1.3511232889   -0.1112433313   -0.8984797046
C        0.9548068077   -3.3909698664   -1.8470172781
C        2.3461511440    1.5711113083    0.5054903040
C        0.9707426780   -3.3846212515    0.3945674313
C        0.2776698084   -2.8912907385   -0.6699280488
C        0.1750927146    0.0193804129   -0.1516143637
C        0.1468945033    0.9953816261    0.8905031124
C        2.0216561722   -4.1159612241   -1.3966901680
C       -1.0047449091   -2.1208092699   -0.6272724720
C       -2.2360568174   -0.0230435613   -0.1241257524
C       -2.1584525890    0.4214746383    1.3376303866
N        1.2203042454    1.7364856539    1.2059525519
N       -0.9958101164   -0.7315594990   -0.4305168130
O       -2.0853172415   -2.7023094449   -0.6733534962
O        2.0556364064   -4.1143990635   -0.0257294688
O       -1.0039332646    1.2369845858    1.6171839216
Br       3.2829440367   -5.0160428314   -2.5099042671
H        3.3788897026    0.5914909004   -1.0975303008
H        1.4189022649   -0.7841457814   -1.7440809489
H        0.6702494538   -3.2400672449   -2.8829320616
H        3.2106006534    2.1713408517    0.7649037074
H        0.7011920387   -3.2284477176    1.4332201578
H       -3.1258829335   -0.6427691061   -0.2723212796
H       -2.3346756575    0.8498271228   -0.7777473041
H       -3.0627620019    0.9852356457    1.5862589810
H       -2.1329600134   -0.4636346207    1.9814326577
27   

C        2.2240205427    1.6210837844   -0.0995978804
C        1.5560584723    0.4458028155    0.2187980825
C        1.0652362788   -1.6666910760   -2.3015765779
C        1.4983156224    2.7432712595   -0.4953600666
C        2.0106590930   -2.8991593359   -0.6836494761
C        0.8692632937   -2.2134426087   -0.9767355599
C        0.1611887007    0.4211443005    0.1095309550
C       -0.5055612668    1.6255130052   -0.2674131337
C        2.3086711121   -2.0668804669   -2.7008763295
C       -0.3122911924   -2.0128148807   -0.0843297102
C       -1.9322640423   -0.4354658743    0.9457378995
C       -2.6275771325    0.4885002888   -0.0569660446
N        0.1640182290    2.7485239894   -0.5704382051
N       -0.6057148531   -0.7331354211    0.4114922456
O       -1.1123461569   -2.9198301643    0.1307817775
O        2.9051868596   -2.8219532457   -1.7225711820
O       -1.8850673218    1.6951899027   -0.3203021837
Br       3.1144928930   -1.6318332063   -4.3745055850
H        3.3038200852    1.6806845432   -0.0396354705
H        2.1162865659   -0.4179296616    0.5551537675
H        0.3718158786   -1.0549881617   -2.8691547327
H        2.0345037299    3.6520914520   -0.7431685482
H        2.1934130867   -3.4260274865    0.2463576513
H       -1.8384679993    0.0639453890    1.9155269769
H       -2.5392602071   -1.3333819489    1.0974655782
H       -2.7755727238   -0.0502034637   -0.9986135991
H       -3.6157901327    0.7547197901    0.3301850275
27   

C        2.1173029696    1.7050625289   -0.3748034508
C        1.4903544099    0.5031898041   -0.0732534731
C        0.8148838345   -1.3976078176   -2.5511661427
C        1.3514451359    2.8494499582   -0.5891034825
C        1.7751605004   -2.9532407808   -1.2477093795
C        0.6989997579   -2.1155184366   -1.2998871418
C        0.0917570738    0.4759256962   -0.0152743289
C       -0.6127788742    1.7014042293   -0.2121406981
C        1.9528091714   -1.8571705819   -3.1510758774
C       -0.3403489719   -1.9698123172   -0.2406036901
C       -1.8971444761   -0.4665142912    0.9828957880
C       -2.6960683105    0.5332212556    0.1431453224
N        0.0177927128    2.8499434216   -0.5032464600
N       -0.6327335267   -0.7049038470    0.2915097376
O       -1.0294220677   -2.9255795242    0.1109736875
O        2.5568740041   -2.8085628664   -2.3677231397
O       -1.9880607604    1.7652569324   -0.0934535889
Br       2.6209587350   -1.2574511185   -4.8343789640
H        3.1966124479    1.7676527146   -0.4404692644
H        2.0863062301   -0.3807490123    0.1212017490
H        0.1420744200   -0.6402031356   -2.9397934010
H        1.8557167715    3.7792614162   -0.8258078236
H        1.9889508534   -3.6348973281   -0.4317504998
H       -1.7042725472   -0.0535001944    1.9783190385
H       -2.4858915066   -1.3799378475    1.1124043747
H       -2.9430697977    0.0760006274   -0.8205122856
H       -3.6377078357    0.7552770676    0.6544114255
27   

C        2.0315360212    2.2310342797    0.4006912193
C        1.5858827393    0.9195288171    0.4996540928
C        1.8425916355   -0.8168882775   -2.0658995992
C        1.1289374176    3.2459584650    0.0884211719
C        2.6322404356   -2.5340160297   -0.8506429574
C        1.5436619145   -1.7172730717   -0.9719578377
C        0.2325419784    0.6545391244    0.2576284404
C       -0.6295004174    1.7574749330   -0.0188935554
C        3.0906301666   -1.1541583380   -2.5073183461
C        0.3290972189   -1.8118124319   -0.1172267022
C       -1.7098575403   -0.6947645190    0.7615248788
C       -2.4927507056    0.2302917413   -0.1740725923
N       -0.1725415963    3.0161935348   -0.1106711416
N       -0.3103069734   -0.6529287147    0.3469618698
O       -0.1856667723   -2.9017984157    0.1307515879
O        3.5930750137   -2.1997598335   -1.7737867078
O       -1.9892627258    1.5798588485   -0.1882293717
Br       4.0138337900   -0.2930868944   -3.9376860731
H        3.0725765288    2.4781812915    0.5689658012
H        2.2809548447    0.1320096283    0.7682685575
H        1.2111836644   -0.0279773637   -2.4615668519
H        1.4929437870    4.2640816458    0.0123126873
H        2.7268811180   -3.3348185249   -0.1252395486
H       -1.8018341676   -0.3506413470    1.7967880247
H       -2.1336408143   -1.7023803303    0.7063511577
H       -2.4535473583   -0.1719416130   -1.1915872047
H       -3.5423066564    0.2441162381    0.1352158430
27   

C        2.2407969711    1.7141411783    0.3008471364
C        1.5917991856    0.5141746122    0.5608382790
C        1.9438692046   -1.6859267533   -1.5296255029
C        1.5484139596    2.7548374061   -0.3159789309
C        2.0959533606   -3.4443754315   -0.1382302824
C        1.3037925951   -2.3655411756   -0.4213422423
C        0.2545355216    0.3814400940    0.1691512396
C       -0.3901433774    1.5095468095   -0.4197484268
C        3.0791464053   -2.3931808882   -1.8074924853
C        0.0222769917   -2.1031460243    0.2842891723
C       -1.9146146098   -0.5844936838    0.6208931205
C       -2.4339937786    0.2324131290   -0.5657674158
N        0.2613123319    2.6575849986   -0.6631142076
N       -0.4869406145   -0.8026095326    0.4084435124
O       -0.6524201854   -3.0356222783    0.7230644259
O        3.1944257937   -3.4684641352   -0.9628945414
O       -1.7313806078    1.4765962263   -0.7503359156
Br       4.3305499780   -1.9554108330   -3.1794490042
H        3.2786155840    1.8555100157    0.5767656725
H        2.1186673620   -0.2900638143    1.0628294557
H        1.5995110186   -0.7973754843   -2.0488191798
H        2.0698071692    3.6840495756   -0.5149280909
H        1.8861493558   -4.1824730281    0.6285612406
H       -2.0728876558   -0.0366447262    1.5555039001
H       -2.4755575084   -1.5223503945    0.6831640719
H       -2.3409479408   -0.3636724059   -1.4793743018
H       -3.4974701736    0.4418660948   -0.4154426344
27   

C        2.0926424327    2.0891501320    0.5865040956
C        1.5539473014    0.8216008687    0.7655931395
C        2.1850588618   -1.2428651904   -1.3676160078
C        1.3159852252    3.0957884298    0.0147266789
C        2.2635820606   -3.2101070061   -0.2842429381
C        1.5226408873   -2.0611816056   -0.3701565069
C        0.2414867564    0.5898443392    0.3387140233
C       -0.4972783932    1.6862620815   -0.1967447989
C        3.2849547772   -1.9452422529   -1.7715041180
C        0.2394416862   -1.9101261312    0.3632556101
C       -1.8340294572   -0.5905727601    0.7101499462
C       -2.4167700275    0.2410855359   -0.4366562787
N        0.0487122499    2.9010992636   -0.3631315549
N       -0.3913238468   -0.6665129323    0.5041142642
O       -0.3231616892   -2.8980220499    0.8392607729
O        3.3567342727   -3.1466152446   -1.1136797872
O       -1.8268341995    1.5508830635   -0.5479456724
Br       4.5394445001   -1.3519274080   -3.0808664561
H        3.1082122625    2.3093611399    0.8919753382
H        2.1439068307    0.0403270548    1.2330861464
H        1.8760939261   -0.2741072713   -1.7461777511
H        1.7516119816    4.0789837154   -0.1209809553
H        2.0210908379   -4.0599200692    0.3450852250
H       -2.0490550779   -0.1132976755    1.6717486471
H       -2.3055133985   -1.5785461316    0.7113689472
H       -2.2655421589   -0.2936843501   -1.3799156671
H       -3.4956198595    0.3468668687   -0.2869436773
27   

C        2.3488990600    1.8457772848   -0.4836962383
C        1.5361548054    0.7899000616   -0.8766160169
C        2.1647754541   -1.9203341052    0.3418844548
C        1.9240158849    2.7056981019    0.5286543595
C        1.3887264879   -3.6127286648   -0.9143624988
C        1.0961087892   -2.3214185667   -0.5555801647
C        0.3162696443    0.6104557375   -0.2163923719
C       -0.0637481270    1.5625891054    0.7747092609
C        3.0297430205   -2.9755559058    0.4082423339
C       -0.2114801005   -1.7240833468   -0.9375628832
C       -1.9885520030   -0.0786275861   -0.4037700207
C       -2.1674099662    0.4045235778    1.0394026500
N        0.7427920530    2.5713460870    1.1399372898
N       -0.5811630484   -0.4230803579   -0.5727724435
O       -1.0283310265   -2.3917337384   -1.5756158390
O        2.5799663880   -4.0157353927   -0.3625648020
O       -1.3018421926    1.5036914937    1.3860946996
Br       4.6254815813   -3.0154528585    1.4535215627
H        3.3076472248    2.0156126895   -0.9581885127
H        1.8456492206    0.1284454069   -1.6793382691
H        2.2682983712   -0.9926809876    0.8936642770
H        2.5708664887    3.5227549266    0.8267589191
H        0.7654245825   -4.2424224060   -1.5406081552
H       -2.6484087563   -0.9339933597   -0.5811637874
H       -2.2663323632    0.7136174367   -1.1065839293
H       -3.2081721933    0.7092889552    1.1859946828
H       -1.9683279017   -0.4274245158    1.7226343411
27   

C        2.3750417021    1.7406369989   -0.4535416616
C        1.5419436144    0.6953407463   -0.8306744061
C        2.0452116011   -1.9952590026    0.4807015522
C        1.9546694592    2.6414111980    0.5238574876
C        1.4925105914   -3.5225807487   -1.0722985548
C        1.0552101383   -2.3484953684   -0.5185140411
C        0.3036120225    0.5673047581   -0.1913962212
C       -0.0663402693    1.5570286648    0.7668552571
C        3.0110178171   -2.9596166507    0.4217926298
C       -0.2666874435   -1.7698734242   -0.8720753403
C       -2.0168929574   -0.0814906010   -0.3750848083
C       -2.1926058795    0.4486002245    1.0512789712
N        0.7597166674    2.5554911895    1.1166065135
N       -0.6150801996   -0.4557535686   -0.5315164076
O       -1.1103521121   -2.4572747123   -1.4506326085
O        2.6969816896   -3.8974461374   -0.5285048285
O       -1.3122516979    1.5453835682    1.3643033321
Br       4.5715618376   -3.0107683186    1.5182782777
H        3.3466578241    1.8705469179   -0.9142719858
H        1.8519014201    0.0057079912   -1.6086926477
H        2.0316467344   -1.1509258510    1.1620129293
H        2.6173655833    3.4502564186    0.8092738632
H        0.9610806795   -4.0872184323   -1.8311160826
H       -2.6921436254   -0.9295610764   -0.5274297510
H       -2.2796177621    0.6934956512   -1.1024574266
H       -3.2290681767    0.7732383050    1.1849956130
H       -2.0073811507   -0.3641812025    1.7609679917
27   

C        2.4641030462    1.3595792351   -0.3494423725
C        1.5432632111    0.4007343652   -0.7511627669
C        1.7875278233   -2.3404897796    0.5763700469
C        2.1236782634    2.2682988190    0.6511807651
C        1.3228314152   -3.6176222767   -1.2136926912
C        0.8356822240   -2.5612609668   -0.4937184315
C        0.2975868171    0.3649067730   -0.1137180640
C        0.0164716818    1.3570244539    0.8720467193
C        2.7806282190   -3.2620100102    0.4007784343
C       -0.4657813573   -1.9123995073   -0.8005690969
C       -2.0704843160   -0.0854252787   -0.2923926618
C       -2.1913572975    0.4195549123    1.1483135286
N        0.9259128688    2.2712827831    1.2444214988
N       -0.7053754470   -0.5706789742   -0.4712070601
O       -1.3866784194   -2.5618310757   -1.2979353571
O        2.5189818554   -4.0481931673   -0.6929945378
O       -1.2228424338    1.4338658663    1.4782488105
Br       4.3163012574   -3.4394942166    1.5188684608
H        3.4437470884    1.4154725528   -0.8080893882
H        1.7940349976   -0.2928237620   -1.5464424848
H        1.7327995116   -1.6007307310    1.3684745901
H        2.8544286296    3.0086556044    0.9557178758
H        0.8325526857   -4.0586551387   -2.0750241277
H       -2.8171815088   -0.8676661994   -0.4616696722
H       -2.2719917337    0.7282949474   -0.9966223277
H       -3.1970113490    0.8231053922    1.3008194333
H       -2.0664356665   -0.4236809300    1.8353359349
27   

C        2.4178632297    1.6201614977   -0.2759089624
C        1.5957089648    0.5608862060   -0.6369639187
C        1.8398091934   -2.0311722357    1.0672401487
C        1.9366604091    2.6071445592    0.5822496502
C        1.8319544537   -3.2759625070   -0.8033629504
C        1.0768531548   -2.3677677302   -0.1165150068
C        0.3025018556    0.5074063410   -0.1028304012
C       -0.1220249037    1.5791601751    0.7382128759
C        2.9972232669   -2.7530512598    0.9931171247
C       -0.2577527185   -1.8825736840   -0.5610110395
C       -2.0114789976   -0.1283522125   -0.4042284226
C       -2.2806963189    0.5207468164    0.9559749880
N        0.6937679290    2.5909948701    1.0733349002
N       -0.6080015322   -0.5310337012   -0.4270950809
O       -1.1085647162   -2.6669856154   -0.9798521902
O        3.0138857405   -3.5179145792   -0.1463982112
O       -1.4101702899    1.6339204599    1.2349623671
Br       4.4002381449   -2.7047523249    2.2849824325
H        3.4287919582    1.6938612162   -0.6576870567
H        1.9591129086   -0.1933759520   -1.3257395566
H        1.5596123002   -1.3432943492    1.8583878957
H        2.5915551876    3.4261949406    0.8563586982
H        1.5406995757   -3.7409715514   -1.7389839322
H       -2.6925253325   -0.9746514000   -0.5380281465
H       -2.2064651786    0.5873366309   -1.2094671705
H       -3.3194635109    0.8633845180    0.9875470244
H       -2.1566061833   -0.2303430034    1.7428067828
27   

C        2.4516105782    1.2269469579    0.3477019616
C        1.5720376829    0.2347688842   -0.0651345108
C        0.9878009512   -2.0970261798    2.0393592872
C        1.9573605679    2.3801776540    0.9542271348
C        1.4097770378   -3.4085873868    0.2666026006
C        0.5313179284   -2.4659790496    0.7164593656
C        0.2031571837    0.4185029033    0.1641534247
C       -0.2197467345    1.6452057412    0.7585087486
C        2.1062320527   -2.8436384261    2.2794223738
C       -0.6277457944   -1.9230713458   -0.0486464584
C       -2.0653437610    0.0354713144   -0.5756971244
C       -2.5120987392    0.9020490676    0.6042982779
N        0.6517297309    2.5882523810    1.1492710837
N       -0.7678289653   -0.5386674779   -0.2287235304
O       -1.5308834224   -2.6584041054   -0.4430041028
O        2.3829165602   -3.6514507728    1.2049268510
O       -1.5595749621    1.9278164262    0.9444145943
Br       3.1486161106   -2.7706618434    3.8755758277
H        3.5192033340    1.1199216550    0.1996152462
H        1.9531034989   -0.6496263896   -0.5620886320
H        0.5419231487   -1.3699401650    2.7101098792
H        2.6570371275    3.1442239396    1.2729031400
H        1.3527847512   -3.8948911029   -0.7010802111
H       -2.8255550279   -0.7272321550   -0.7708899352
H       -1.9714563593    0.6474436637   -1.4786492184
H       -3.4696429179    1.3713995301    0.3589341497
H       -2.6717752081    0.2629741431    1.4788193532
27   

C        2.4934896619    1.2183873195   -0.1360593763
C        1.5545662973    0.2843757701   -0.5542892005
C        1.2652668932   -2.4187199193    1.3542942527
C        2.1119896115    2.2426198890    0.7288447688
C        1.5458415046   -3.2071001642   -0.7267317654
C        0.6610800771   -2.5118927374    0.0432518535
C        0.2459974847    0.3919945027   -0.0703568341
C       -0.0677840253    1.4926069152    0.7824301032
C        2.4654922219   -3.0652539835    1.2695202438
C       -0.6336252736   -1.9108334344   -0.3984702757
C       -2.1095425349    0.0860022492   -0.4850258130
C       -2.3600593822    0.7331937693    0.8791522565
N        0.8589570331    2.3816941223    1.1722595527
N       -0.7792434242   -0.5156278117   -0.4399064710
O       -1.6230648122   -2.6072845595   -0.6105624752
O        2.6567770438   -3.5544355289    0.0017614418
O       -1.3566072437    1.7044684318    1.2349960259
Br       3.7112259829   -3.2545508263    2.7019856926
H        3.5201286380    1.1659028637   -0.4771921454
H        1.8422354692   -0.4947352925   -1.2494970504
H        0.8573704048   -1.9293280817    2.2325195837
H        2.8571543250    2.9620234833    1.0482935931
H        1.3991080151   -3.4454008614   -1.7743896106
H       -2.8978378361   -0.6437600328   -0.6942118605
H       -2.1476295492    0.8441004352   -1.2740411052
H       -3.3399558522    1.2200083854    0.8676946271
H       -2.3874842288   -0.0469635435    1.6468889216
27   

C        2.3742123420    1.0106746564    0.2920803069
C        1.5191976448   -0.0444867361    0.5825433891
C        1.8559348256   -3.4650504936    0.5832674123
C        1.8987091810    2.1103274218   -0.4195929822
C        1.3593169734   -2.8847797976   -1.5242594599
C        0.8600787442   -2.8361563108   -0.2572634838
C        0.1981277335    0.0214555722    0.1260966821
C       -0.2157833806    1.2020745687   -0.5625220095
C        2.8900180949   -3.8100839979   -0.2402613270
C       -0.5006478667   -2.3680094688    0.1542464646
C       -2.1201893927   -0.5190829086    0.5126480278
C       -2.4467227221    0.2890163208   -0.7446122327
N        0.6311564778    2.2078145837   -0.8310961247
N       -0.7493811492   -1.0047874762    0.3746108338
O       -1.4402620728   -3.1560445216    0.2176174318
O        2.6099445426   -3.4522757500   -1.5341795735
O       -1.5249907818    1.3729225104   -0.9719472882
Br       4.4942527034   -4.6776895118    0.3200345802
H        3.4069771384    0.9948963616    0.6181081890
H        1.8800193984   -0.8806626544    1.1682502341
H        1.7953670921   -3.6463632171    1.6511255188
H        2.5790324491    2.9248525387   -0.6399403424
H        0.8394744288   -2.5295722589   -2.4071176396
H       -2.1995453300    0.1175937773    1.3998884495
H       -2.8472731952   -1.3290417707    0.6272266694
H       -2.4335760604   -0.3771045770   -1.6133238566
H       -3.4591914837    0.6940968870   -0.6538664152
27   

C        2.3640862178    1.0448700383    0.2493010336
C        1.5163347226   -0.0099384264    0.5608950539
C        1.8408211594   -3.5912257711    0.5773945492
C        1.8794757210    2.1298610037   -0.4786094571
C        1.3704276319   -2.7278819763   -1.4382702664
C        0.8732864465   -2.8208125590   -0.1714222059
C        0.1919332629    0.0420693352    0.1093604296
C       -0.2307595793    1.2075533644   -0.5984976758
C        2.8581255290   -3.8750802697   -0.2894334685
C       -0.4637155455   -2.3542933068    0.3054128386
C       -2.1280735185   -0.5183270821    0.4965349838
C       -2.4493903020    0.2683926424   -0.7760663618
N        0.6099638814    2.2127511207   -0.8877783812
N       -0.7480137681   -0.9838417546    0.3872983998
O       -1.3606336980   -3.1623726954    0.5332638816
O        2.5947345006   -3.3436158882   -1.5263469142
O       -1.5415671613    1.3625871603   -1.0077882313
Br       4.4204060669   -4.8803354926    0.1454356979
H        3.3981572785    1.0402324359    0.5716750207
H        1.8854289721   -0.8363674663    1.1574273692
H        1.7704086223   -3.9031923055    1.6141121507
H        2.5543702453    2.9444610929   -0.7148472635
H        0.8674280395   -2.2400516066   -2.2658801955
H       -2.2331947678    0.1269821871    1.3747734913
H       -2.8429881418   -1.3400510841    0.6038731589
H       -2.4145676707   -0.4089090548   -1.6354583550
H       -3.4690110535    0.6592399295   -0.7047905317
27   

C        2.3411770196    1.1573238361    0.2379921229
C        1.5410756487    0.0701515464    0.5641011523
C        1.9141764782   -3.7086749777    0.5202843738
C        1.8076112005    2.2122531348   -0.5002012040
C        1.5425922255   -2.5238128568   -1.3466547309
C        0.9999725157   -2.7914229945   -0.1217265165
C        0.2141481839    0.0608029865    0.1165521128
C       -0.2613841427    1.1984981528   -0.6021549532
C        2.9465542170   -3.8990898992   -0.3540977145
C       -0.3251580783   -2.3569610362    0.4030609338
C       -2.0785915447   -0.5993991729    0.5181974922
C       -2.4360108102    0.1595031257   -0.7621255979
N        0.5345117483    2.2351591359   -0.9063938971
N       -0.6784768534   -1.0006713957    0.4135102432
O       -1.1619095309   -3.1917576508    0.7413747121
O        2.7439512801   -3.1709531111   -1.4988497797
O       -1.5791743438    1.2913071469   -1.0073345529
Br       4.4527910364   -5.0284206680   -0.0436073646
H        3.3753629891    1.2014515686    0.5571547839
H        1.9469044794   -0.7350754992    1.1671011990
H        1.7973555044   -4.1734973200    1.4937751954
H        2.4457032775    3.0527614611   -0.7477158536
H        1.0865963553   -1.8920007653   -2.1009768844
H       -2.2152781929    0.0476593195    1.3907738025
H       -2.7529882477   -1.4542533696    0.6297298626
H       -2.3710881965   -0.5242550494   -1.6146481563
H       -3.4724002358    0.5041233721   -0.6939609895
27   

C        2.3234813014    1.2304483609    0.2731011762
C        1.5415232770    0.1364713666    0.6206530983
C        1.8347788310   -3.8714454423    0.4977177690
C        1.7807264485    2.2482135778   -0.5100936257
C        1.6851612884   -2.3900706727   -1.1768883568
C        1.0395456683   -2.7889220987   -0.0376400848
C        0.2248536650    0.0837923527    0.1484198705
C       -0.2636638771    1.1860236766   -0.6145205449
C        2.9018898120   -4.0229637578   -0.3413634510
C       -0.2665460633   -2.3354370951    0.5099079826
C       -2.0557940343   -0.6123986659    0.5438521178
C       -2.4143381563    0.0956356021   -0.7655358401
N        0.5151965828    2.2289785028   -0.9399739563
N       -0.6470593401   -0.9872821120    0.4644856856
O       -1.0741326823   -3.1634821626    0.9297254437
O        2.8352101445   -3.1152171560   -1.3670609456
O       -1.5765747535    1.2348803306   -1.0427735580
Br       4.2847411772   -5.3213623321   -0.1349794962
H        3.3501808168    1.3090753955    0.6094524867
H        1.9504934050   -0.6430781518    1.2553283088
H        1.6167684471   -4.4633658098    1.3808562000
H        2.4046463947    3.0941389118   -0.7747242005
H        1.3358343112   -1.6142392604   -1.8493728776
H       -2.2147429630    0.0602894889    1.3929701846
H       -2.7127702518   -1.4778086376    0.6765777984
H       -2.3278459467   -0.6158885459   -1.5931172032
H       -3.4578516517    0.4219661821   -0.7194883694
27   

C        2.3248868990    1.2860462194    0.2623141095
C        1.5567046752    0.1861847335    0.6227850042
C        1.7187392711   -4.0226434986    0.3245400817
C        1.7737429360    2.2806070525   -0.5453163124
C        1.8085125264   -2.3033146436   -1.1065353859
C        1.0554591213   -2.7994676703   -0.0735383783
C        0.2471855186    0.1047678760    0.1369596394
C       -0.2534735772    1.1859152457   -0.6471440169
C        2.8147198843   -4.1567630868   -0.4786979389
C       -0.2168325830   -2.3180848574    0.5247686698
C       -2.0201931762   -0.6121419311    0.5472843162
C       -2.3923906347    0.0675180529   -0.7739282121
N        0.5124118575    2.2341741868   -0.9857246672
N       -0.6085443348   -0.9736461745    0.4641603805
O       -0.9953176843   -3.1315269204    1.0235448904
O        2.8931542243   -3.1067485871   -1.3560067361
O       -1.5654246661    1.2076850165   -1.0809687925
Br       4.0578760468   -5.6026140871   -0.4083806956
H        3.3469283102    1.3876431114    0.6066722947
H        1.9682774163   -0.5783889647    1.2742451558
H        1.3974463716   -4.7103610039    1.1005202014
H        2.3869436930    3.1308873574   -0.8208409515
H        1.5810021992   -1.4070045472   -1.6726259078
H       -2.1806714364    0.0746205457    1.3847892778
H       -2.6666989394   -1.4822328229    0.6998329594
H       -2.3056424700   -0.6599614845   -1.5875282915
H       -3.4382619362    0.3862332064   -0.7277785752
27   

C        2.2772112361    1.3652826434    0.3159029434
C        1.5272174666    0.2537265073    0.6803106314
C        1.5718501419   -4.1351309304    0.1215575133
C        1.7249280688    2.3253663699   -0.5326456264
C        1.9465048221   -2.2315432402   -0.9905979282
C        1.0577642164   -2.8005211823   -0.1117688077
C        0.2380857963    0.1259067337    0.1539206872
C       -0.2702859368    1.1769018925   -0.6645210868
C        2.7133342119   -4.2589937537   -0.6160974039
C       -0.1921616792   -2.3076855345    0.5259105968
C       -2.0133749360   -0.6239671371    0.5537590325
C       -2.3897113467    0.0175306206   -0.7859818279
N        0.4781410230    2.2363561219   -1.0069506499
N       -0.5967486427   -0.9661917964    0.4800042675
O       -0.9485438457   -3.1192320802    1.0621617301
O        2.9636366330   -3.0995327086   -1.3004094338
O       -1.5736580683    1.1576694343   -1.1244777453
Br       3.8064808585   -5.8209186074   -0.6964961129
H        3.2855166909    1.5028076991    0.6872278906
H        1.9349390744   -0.4876090162    1.3606377299
H        1.1278974999   -4.8964599365    0.7556291207
H        2.3241160150    3.1842370251   -0.8123348861
H        1.8658648063   -1.2408126307   -1.4214177965
H       -2.1847910997    0.0812940594    1.3735850437
H       -2.6477813107   -1.4989444865    0.7277602414
H       -2.2946747765   -0.7307703440   -1.5795203362
H       -3.4389104206    0.3264961493   -0.7496843100
27   

C        2.2431352824    1.4644290309    0.3598311813
C        1.5129639648    0.3467837071    0.7467104843
C        1.4453633552   -4.2049261498   -0.0256016508
C        1.6985904175    2.3636365908   -0.5583381186
C        2.1135462997   -2.2182404607   -0.7984640626
C        1.0918125494   -2.7991277640   -0.0861505554
C        0.2560221989    0.1496800273    0.1688507786
C       -0.2532369848    1.1463260626   -0.7137692211
C        2.6255307176   -4.3545378765   -0.6929038299
C       -0.1399917539   -2.2859837211    0.5757855766
C       -1.9806064273   -0.6278544388    0.5584718107
C       -2.3486879724   -0.0607963744   -0.8175222561
N        0.4757732936    2.2122357427   -1.0773021738
N       -0.5580474435   -0.9489686770    0.5161801309
O       -0.8783715200   -3.0868508506    1.1523681256
O        3.0528971617   -3.1464778102   -1.1726365728
O       -1.5414881451    1.0693385134   -1.2096780712
Br       3.5537486289   -6.0046746435   -0.9309332665
H        3.2295108723    1.6536975155    0.7656327139
H        1.9103531078   -0.3493834854    1.4788868316
H        0.8767814838   -4.9931285405    0.4585878527
H        2.2824745474    3.2270591150   -0.8558339180
H        2.1909714686   -1.1772906667   -1.0815769921
H       -2.1725091805    0.1151331439    1.3395681207
H       -2.6031267829   -1.5029584702    0.7706778560
H       -2.2370652699   -0.8487252749   -1.5693930982
H       -3.4016424177    0.2372973273   -0.8082510560
