14   

C       -1.7007048542   -0.2945535080    0.0934097523
C        0.4076507823   -0.7134711401    0.1434816868
C        1.7730573129   -1.3318565289    0.0555675803
C        0.2773311457    0.8242679608    0.1942988081
N        1.3805104998    2.0377837904   -1.9091536007
N       -1.1909897398    0.9116027259    0.1577077711
N       -0.7568368190   -1.3051895705    0.0686085886
N        0.8786144550    1.4888864785   -0.9681122655
N        1.8227321580   -2.6275193672   -0.2958711529
O        2.7940452009   -0.6723874233    0.1348542352
H       -2.7718520200   -0.4803371619    0.0596592403
H        0.6989158356    1.2166900016    1.1291827249
H        2.7418553640   -3.0508696341   -0.3891389834
H        0.9753039812   -3.1832387549   -0.3677320270
14   

C       -1.7235047689   -0.3280752128    0.0397136117
C        0.3844786400   -0.7221975334    0.2211090475
C        1.7549254493   -1.3379939925    0.1760723541
C        0.2360204193    0.8170008366    0.1814011877
N        1.4197108953    1.9282442612   -1.9347473413
N       -1.2296914021    0.8856097220    0.0751059918
N       -0.7689870334   -1.3273580426    0.0956526914
N        0.8827211026    1.4246102355   -0.9877811310
N        1.8391590504   -2.5547442420   -0.3971478306
O        2.7645311881   -0.6801711473    0.3524314192
H       -2.7902460425   -0.5280378121   -0.0315573816
H        0.6114696798    1.2641581731    1.1114190624
H        2.7675728810   -2.9558525593   -0.4970450191
H        1.0050456900   -3.1105661566   -0.5626830930
14   

C       -1.7174775073   -0.3409130339   -0.0924456279
C        0.3690076636   -0.7524051844    0.2530198917
C        1.7269031564   -1.4014634872    0.2965033448
C        0.2382949966    0.7905043621    0.1545090687
N        1.5496372071    1.8177638086   -1.9283580192
N       -1.2169542963    0.8692541698   -0.0440685221
N       -0.7769647051   -1.3464715450    0.0376317002
N        0.9576485774    1.3509442394   -0.9954173332
N        1.8911293754   -2.4848975083   -0.4952976491
O        2.7145868815   -0.7782414841    0.6404429621
H       -2.7795967246   -0.5338890365   -0.2251125257
H        0.5634797048    1.2651923745    1.0899010684
H        2.8302159519   -2.8697091722   -0.5506549645
H        1.0873034079   -3.0208653672   -0.8090777835
14   

C       -1.7071806071   -0.3036924403   -0.2068633963
C        0.3474558878   -0.7520451430    0.2677182009
C        1.6803901280   -1.4461387210    0.3928176440
C        0.2566422194    0.7940776668    0.1112689789
N        1.6676963768    1.7205102239   -1.9533828395
N       -1.1856739057    0.8973328661   -0.1563788284
N       -0.7945867705   -1.3246453202   -0.0140653386
N        1.0333075747    1.2978989874   -1.0272809573
N        1.9729381869   -2.3616467768   -0.5622428206
O        2.6223544887   -0.8801901979    0.9157680855
H       -2.7658555760   -0.4786536668   -0.3841424231
H        0.5526654480    1.2940112795    1.0433043210
H        2.9201528839   -2.7303925004   -0.5476747663
H        1.2272453580   -2.8693091646   -1.0288172426
14   

C       -1.7176241948   -0.2967896050   -0.2328449572
C        0.3180538823   -0.7738718897    0.2958949870
C        1.6277624011   -1.5074585558    0.4643432764
C        0.2640426328    0.7698119380    0.0774664115
N        1.7088415097    1.5908357325   -2.0081968489
N       -1.1718768117    0.8942638457   -0.2134403327
N       -0.8293311900   -1.3294488933    0.0042187789
N        1.0610401665    1.2144408385   -1.0714874506
N        2.0526648457   -2.2348355626   -0.6018773895
O        2.5112709303   -1.0189343837    1.1429510905
H       -2.7774791322   -0.4556943019   -0.4178482071
H        0.5593677976    1.2989302919    0.9935893047
H        3.0025734621   -2.5901191454   -0.5280340927
H        1.3758266063   -2.7061572878   -1.1941745532
14   

C       -1.7376165191   -0.2803948599   -0.1532065594
C        0.2996597480   -0.7920059971    0.3356095833
C        1.5871909244   -1.5656348305    0.5192980856
C        0.2807000240    0.7442573086    0.0490003350
N        1.6750359443    1.4525631516   -2.1110175501
N       -1.1593126863    0.8943706404   -0.2073860992
N       -0.8714667460   -1.3256770401    0.1072562127
N        1.0511616621    1.1252482494   -1.1401652439
N        2.1277107170   -2.0930091785   -0.6171458446
O        2.4063486024   -1.1894465397    1.3352382268
H       -2.8064888350   -0.4178170401   -0.2995490255
H        0.6130151192    1.3038191871    0.9339467393
H        3.0751149504   -2.4444538899   -0.4995929559
H        1.5181226528   -2.5137370942   -1.3114198000
14   

C       -1.7799605811   -0.2119864019    0.1242386535
C        0.2774416643   -0.8051179342    0.3704896714
C        1.5384658250   -1.6240434986    0.5644918811
C        0.2934019919    0.7187467279    0.0131790579
N        1.4449434601    1.3041740111   -2.3200751451
N       -1.1593825052    0.9239464212   -0.0859494209
N       -0.9386877260   -1.2812682360    0.3645262469
N        0.9314245323    1.0287845434   -1.2712935688
N        2.1992214636   -1.9494307370   -0.5922723189
O        2.2432270404   -1.4618481678    1.5410460633
H       -2.8637453808   -0.3023571749    0.1117470491
H        0.7428578948    1.2984858646    0.8310102160
H        3.1284948939   -2.3303674133   -0.4261292760
H        1.6683956592   -2.2737234303   -1.3939029414
14   

C       -1.7343070269    0.0047402790    0.6779504576
C        0.2545751482   -0.8047040013    0.3858589030
C        1.4831073331   -1.6721015969    0.5933588622
C        0.3027634664    0.7012822517   -0.0464225339
N        0.8210400057    1.1397955205   -2.6271435292
N       -1.1022416741    1.0501390867    0.2031857635
N       -0.9378723629   -1.1097741498    0.8269212083
N        0.5975863608    0.9239647206   -1.4672053717
N        2.2774708666   -1.8110286572   -0.5236492329
O        1.6421537373   -2.4537289561    1.5097307683
H       -2.7900642831    0.0173623340    0.9390168781
H        0.9872769213    1.2701238152    0.5971807541
H        2.9858136377   -2.5345197334   -0.4102627624
H        1.9481890800   -1.5849396669   -1.4522689275
14   

C       -1.7191511826    0.0425071638    0.7226669815
C        0.2390099571   -0.8274062185    0.3870258388
C        1.4329334211   -1.7487110592    0.5755436052
C        0.3093620072    0.6659019749   -0.0871899648
N        0.6690313593    1.0162742414   -2.7088551141
N       -1.0712516490    1.0638049468    0.2180986691
N       -0.9518576837   -1.0932701511    0.8576600977
N        0.5207224625    0.8404509303   -1.5299150869
N        2.3557810668   -1.7023535717   -0.4539749633
O        1.5063051685   -2.6553608665    1.3812522107
H       -2.7642366068    0.0899159220    1.0201490006
H        1.0429009993    1.2332876101    0.5011869293
H        3.0671492943   -2.4283461425   -0.3817054676
H        2.1869867039   -1.2537789138   -1.3424957654
14   

C       -1.7192541331    0.0734772330    0.7053598168
C        0.2232454515   -0.8375290676    0.3737468881
C        1.3764366113   -1.8157945417    0.5457294184
C        0.3118612943    0.6465596772   -0.1325364808
N        0.6012912867    0.8936218315   -2.7752057982
N       -1.0543270104    1.0781365286    0.1898070790
N       -0.9751101647   -1.0774566269    0.8402994139
N        0.4868741715    0.7682908284   -1.5858239243
N        2.4332023924   -1.6226293154   -0.3283450838
O        1.3582739312   -2.8190838687    1.2314441958
H       -2.7598930644    0.1449867007    1.0134599597
H        1.0693310565    1.2155653932    0.4226869210
H        3.1488485195   -2.3452974109   -0.2651418007
H        2.4655598928   -0.9382743816   -1.0692069559
14   

C       -1.7494939651   -0.3666055365   -0.1328841780
C        0.3485540042   -0.7484078713    0.2830202006
C        1.6090552851   -1.5423752629    0.5939521648
C        0.1247883611    0.8000940600    0.3898817965
N        1.3614145404    2.1676335245   -1.5414962190
N       -1.3156252084    0.8456944827    0.1093851691
N       -0.7776836310   -1.3368581730   -0.0293561665
N        0.8197096827    1.5474337837   -0.6666746083
N        2.7542834529   -0.7673156778    0.7026709921
O        1.7065764198   -2.7539390278    0.5983264624
H       -2.7849430433   -0.5895567185   -0.3801166184
H        0.3626684026    1.1783184278    1.3924036390
H        3.5992579343   -1.3176282681    0.8502787912
H        2.7752964635    0.2343432675    0.8292277584
14   

C       -1.7493442315   -0.3565157846   -0.1202082245
C        0.3455043941   -0.7562158356    0.2806253148
C        1.6294302241   -1.5332064724    0.5137434681
C        0.1503806891    0.7957634342    0.3433430871
N        1.4033869686    2.0719846440   -1.6392592477
N       -1.2932148699    0.8554269044    0.0812122013
N       -0.7895763297   -1.3381665104   -0.0094352799
N        0.8518889999    1.4944653337   -0.7417617506
N        2.7221039350   -0.7306094263    0.8123324212
O        1.7731873160   -2.7348121540    0.4020739147
H       -2.7919723290   -0.5700574185   -0.3445574323
H        0.4038751937    1.2007670258    1.3310279391
H        3.5772550474   -1.2652617805    0.9597539860
H        2.6685001224    0.2241185143    1.1384494647
14   

C       -1.7549187263   -0.3453237770   -0.0894222777
C        0.3426580357   -0.7366986184    0.2981037189
C        1.6517761835   -1.4883338979    0.4544104601
C        0.1542394689    0.8166830181    0.3084826950
N        1.4053259668    2.0090441713   -1.7264834283
N       -1.2929798381    0.8714680996    0.0651907608
N       -0.7946590862   -1.3255060622    0.0326628523
N        0.8528178402    1.4700629669   -0.8061068408
N        2.6887786218   -0.7091008631    0.9405229988
O        1.8344514454   -2.6689783602    0.2321712275
H       -2.8016168035   -0.5630717172   -0.2894658100
H        0.4204675065    1.2559625241    1.2775771034
H        3.5452071506   -1.2425459053    1.0847771550
H        2.5631291527    0.1649752123    1.4326653186
14   

C       -1.7351716739   -0.3349540106   -0.0922702643
C        0.3658459686   -0.7068239256    0.2950943158
C        1.6941680767   -1.4335579347    0.3945407396
C        0.1715100070    0.8460139922    0.2580722620
N        1.4126953322    1.9697591713   -1.8211783620
N       -1.2783685122    0.8876489947    0.0281087611
N       -0.7679852354   -1.3072128568    0.0409560888
N        0.8636476105    1.4620359250   -0.8812738908
N        2.6691108802   -0.7380782834    1.0790351526
O        1.9081417793   -2.5799329340    0.0531029767
H       -2.7827682068   -0.5626776816   -0.2757918306
H        0.4468691181    1.3174583101    1.2091252472
H        3.5149470000   -1.2882211470    1.2219613913
H        2.4749196333    0.0352831875    1.7016698218
14   

C       -1.7265616164   -0.3403425513   -0.0849266487
C        0.3815438403   -0.6771151668    0.2972371969
C        1.7274310793   -1.3741258488    0.3559239051
C        0.1693303269    0.8719650175    0.2097125435
N        1.3736915160    1.9284836531   -1.9255251693
N       -1.2841767682    0.8903913381    0.0003678156
N       -0.7451140822   -1.2971205320    0.0581566563
N        0.8408411363    1.4515464520   -0.9605552333
N        2.6324487356   -0.8119915624    1.2206433041
O        1.9753505702   -2.4657293192   -0.1168396627
H       -2.7735153176   -0.5853657882   -0.2487061204
H        0.4569558667    1.3793607888    1.1384277513
H        3.4633663882   -1.3869130665    1.3510647973
H        2.3748049768   -0.1480639422    1.9401950435
14   

C       -1.6739927116   -0.3474397463   -0.0864844282
C        0.4404894801   -0.6331122577    0.2944091480
C        1.8085438749   -1.2822926151    0.3324212919
C        0.2002034656    0.9080628477    0.1638755492
N        1.3639019276    1.9099473947   -2.0196958143
N       -1.2558319583    0.8933832499   -0.0289611250
N       -0.6722940737   -1.2818194386    0.0672647952
N        0.8489098249    1.4588628322   -1.0328825744
N        2.6231474973   -0.8926953201    1.3556022831
O        2.1205924505   -2.2716543828   -0.3003748835
H       -2.7172993463   -0.6161252713   -0.2356918127
H        0.4931513987    1.4484846834    1.0722869468
H        3.4503908602   -1.4785142908    1.4544624344
H        2.2903945990   -0.3658060186    2.1543382338
14   

C       -1.6792520284   -0.3313647348    0.2591641486
C        0.4597158670   -0.5986504840    0.3087769703
C        1.8439117054   -1.2027690333    0.3335417871
C        0.2068037792    0.9306732103    0.1116478431
N        1.1412529299    1.7282262680   -2.2565120049
N       -1.2630964495    0.9044745972    0.1168970470
N       -0.6638879733   -1.2596144358    0.3877080353
N        0.7203754876    1.3754031680   -1.1892399324
N        2.5802614216   -1.0076679452    1.4574601454
O        2.4582186095   -1.4021663346   -0.6976160931
H       -2.7329604428   -0.6001012908    0.2801296913
H        0.6236046179    1.5224731664    0.9360317829
H        3.5469912954   -1.3166076369    1.3830136693
H        2.1404158784   -0.9515684540    2.3703213935
14   

C       -1.6229947304   -0.2533840692    0.6616924767
C        0.4856122177   -0.5627934452    0.3410906135
C        1.8849345913   -1.1207718136    0.3602427515
C        0.2110497949    0.9472073669    0.0661652440
N        0.8269656186    1.5840740240   -2.4491317007
N       -1.2414861912    0.9453732310    0.2924412015
N       -0.5928958107   -1.1707645738    0.7581549974
N        0.5434316649    1.3013644550   -1.3181558609
N        2.5459333391   -1.1279410189    1.5393450526
O        2.5977510228   -0.9714733016   -0.6156054489
H       -2.6598461227   -0.5012160119    0.8770509974
H        0.7485957130    1.5855546853    0.7786119692
H        3.5393014648   -1.3359969115    1.4745550571
H        2.0502124046   -1.2752584695    2.4129046085
14   

C       -1.5838272142   -0.1979030041    0.7382591894
C        0.5117357388   -0.5169950385    0.3501013812
C        1.9224868327   -1.0388321313    0.3794549617
C        0.2160623447    0.9676361074   -0.0085262956
N        0.7391022123    1.4749402693   -2.5736232146
N       -1.2274594012    0.9732283909    0.2699112333
N       -0.5416001114   -1.0986132511    0.8605457428
N        0.4958758614    1.2481581676   -1.4210713699
N        2.4964020544   -1.2534288673    1.5800398381
O        2.6907156306   -0.7393240652   -0.5169683043
H       -2.6095938158   -0.4363248991    1.0099216699
H        0.7742900308    1.6496009654    0.6454404607
H        3.4954871663   -1.4410614196    1.5652326384
H        1.9360627195   -1.5028585625    2.3891269928
14   

C       -1.5604077399   -0.1876871957    0.7488586217
C        0.5419548465   -0.4705212327    0.3761538444
C        1.9677113205   -0.9442189985    0.4209996901
C        0.2114892658    0.9814541624   -0.0582800305
N        0.7125426666    1.3858774019   -2.6459849951
N       -1.2316644059    0.9670684201    0.2233518102
N       -0.4972679872   -1.0573177531    0.9102321757
N        0.4790698995    1.2030858895   -1.4837308752
N        2.4545427461   -1.3685678446    1.6010429526
O        2.7783520274   -0.5206521892   -0.3835522380
H       -2.5798031772   -0.4356749383    1.0355903769
H        0.7547661450    1.7082838635    0.5591942717
H        3.4549840061   -1.5438549720    1.6405268560
H        1.8359004315   -1.7103201207    2.3301622305
14   

C       -1.7060317325   -0.3383459105    0.2517700905
C        0.3696438190   -0.7438078203   -0.1461933379
C        1.7067045497   -1.3940819814   -0.3581411197
C        0.2963067926    0.7348939343    0.3039455367
N        1.1575283737    2.4114597239   -1.5825745399
N       -1.1596610095    0.8290261211    0.4901179169
N       -0.7999434958   -1.3260713484   -0.0889529463
N        0.7625160425    1.6578088220   -0.7371959059
N        1.8863852030   -2.6263303012    0.1450787747
O        2.6941198732   -0.7271867525   -0.6116923656
H       -2.7773823930   -0.5125994804    0.3208726047
H        0.8527498331    0.8866884940    1.2379530057
H        2.8273183777   -3.0079607180    0.1014006085
H        1.0953329388   -3.2073416611    0.4060756509
14   

C       -1.6997851860   -0.3166525637    0.2087256897
C        0.3901938733   -0.7301349238   -0.0835396648
C        1.7393819386   -1.3651612835   -0.2542185729
C        0.2961868070    0.7704192003    0.2705846787
N        1.2030850220    2.3430014290   -1.6830958954
N       -1.1657888415    0.8643964382    0.4050270272
N       -0.7795797586   -1.3145385393   -0.0563133065
N        0.7879908298    1.6349608813   -0.8084129929
N        1.8506531664   -2.6666299661    0.0501410765
O        2.7468050055   -0.6959236962   -0.4000464801
H       -2.7720048123   -0.4934186780    0.2542060666
H        0.8219744782    0.9822645621    1.2107860564
H        2.7813417134   -3.0735025636    0.0181031800
H        1.0287624011   -3.2410789254    0.2121173943
14   

C       -1.7016256572   -0.3029079593    0.1811568097
C        0.3984774884   -0.7219934193   -0.0024243345
C        1.7559785486   -1.3451779884   -0.1433545785
C        0.2885924185    0.7959980554    0.2512724117
N        1.2499542281    2.2540129382   -1.7644406876
N       -1.1775482520    0.8892833697    0.3326192921
N       -0.7706726129   -1.3084613579   -0.0060874998
N        0.8108167503    1.5965592524   -0.8624266021
N        1.8288888149   -2.6803349572   -0.0529481647
O        2.7724646540   -0.6767971274   -0.2066516749
H       -2.7742011036   -0.4820828952    0.2028452957
H        0.7822918621    1.0689953853    1.1932054167
H        2.7522960108   -3.1022057346   -0.0979459602
H        0.9908148550   -3.2489511899    0.0260315983
14   

C       -1.7054757356   -0.3054848273    0.1341454784
C        0.4025670370   -0.7196837734    0.0677136265
C        1.7671851627   -1.3332383370   -0.0468988937
C        0.2749303119    0.8107605644    0.2196947955
N        1.3015049909    2.1514243662   -1.8448826280
N       -1.1937992148    0.8968660383    0.2416311398
N       -0.7630171512   -1.3122677236    0.0286772271
N        0.8334811659    1.5460086604   -0.9212129406
N        1.8233543802   -2.6665452237   -0.1770542315
O        2.7859575190   -0.6655088907   -0.0386715236
H       -2.7771451362   -0.4912031368    0.1278900745
H        0.7309668897    1.1457684643    1.1606691742
H        2.7437147613   -3.0918704451   -0.2456336619
H        0.9785632996   -3.2307965162   -0.1738577362
