29   

C        3.0827051691   -2.8217797934    0.6819573487
C        2.4561158267   -1.6307112896    0.3065087301
C        2.8669562766   -3.3461956659    1.9590454318
C        1.6126207640   -0.9681404590    1.2053904979
C        2.0304136383   -2.6775597424    2.8598220700
C       -0.1577744475   -4.4163247697    5.7023698242
C       -0.0377992178   -5.6847908451    5.1287660140
C       -1.3789417027   -3.6781893900    3.7571854705
C        1.3909331718   -1.4815425091    2.4939293585
C       -0.8177813871   -3.3955208030    5.0109109119
C       -0.5735885779   -5.9594048606    3.8639174113
C       -1.2572308274   -4.9435234019    3.1715521807
C        0.5091501165   -0.7873169015    3.4275816395
C        0.3878060838   -0.8933446838    4.8032310948
O       -2.2147142048   -1.0958389254    5.3467220620
O       -0.6358753127   -1.7070375608    7.1429271960
S       -0.9261336337   -1.7117408648    5.7003690675
Cl      -0.3814442417   -7.5553480493    3.1717728384
Cl      -1.9481107718   -5.2292546999    1.5887284502
H        3.7341591542   -3.3369649584   -0.0152609353
H        2.6241820635   -1.2188398752   -0.6823202310
H        3.3479611078   -4.2724058268    2.2525255806
H        1.1358735699   -0.0442139152    0.8968215567
H        1.8732598970   -3.0984910483    3.8462994135
H        0.2668225198   -4.2216918262    6.6844909040
H        0.4794592549   -6.4709344097    5.6661909376
H       -1.9105124609   -2.9003335044    3.2159879361
H       -0.1566114395   -0.0573378327    2.9776408061
H        1.1752838776   -0.5067921868    5.4305091288
29   

C        2.8590959693   -3.1018706307    0.8812158853
C        2.1717338692   -1.9876014353    0.3940702292
C        2.8006604129   -3.4115707677    2.2421107872
C        1.4214415810   -1.1897960217    1.2652046586
C        2.0565778229   -2.6081414258    3.1130844765
C       -0.0688366085   -4.3959121597    5.5513966368
C        0.1165812861   -5.6109793083    4.8865613873
C       -1.2398916866   -3.5466477310    3.6209998278
C        1.3501342919   -1.4909951026    2.6357523453
C       -0.7338067187   -3.3440518682    4.9132726353
C       -0.3570800279   -5.8005184292    3.5818410230
C       -1.0493426877   -4.7559304721    2.9432777528
C        0.5415697750   -0.6668667387    3.5329816962
C        0.3628656861   -0.7591282830    4.8918645275
O       -2.2272575483   -1.1359456145    5.4094070564
O       -0.6265059408   -1.8002130413    7.1584486295
S       -0.9112073709   -1.7173103522    5.7170195953
Cl      -0.0763051300   -7.3270211839    2.7733903905
Cl      -1.6611669277   -4.9340013752    1.3129112106
H        3.4361447549   -3.7235037031    0.2055771600
H        2.2177353922   -1.7421945099   -0.6610758936
H        3.3314381192   -4.2762685415    2.6239485334
H        0.8911848642   -0.3322628980    0.8658656531
H        2.0251225387   -2.8635136645    4.1657608645
H        0.3117797345   -4.2653273421    6.5616782895
H        0.6393387598   -6.4205074482    5.3821211925
H       -1.7747182835   -2.7452593165    3.1191692535
H        0.0257557726    0.1666718887    3.0666985954
H        0.9932687357   -0.1872180879    5.5544828424
29   

C        2.7120193632   -3.3434589672    1.1798616491
C        1.8924030275   -2.3839333490    0.5806891435
C        2.8503312735   -3.3663244194    2.5695701559
C        1.2053392496   -1.4553904099    1.3707391712
C        2.1644079979   -2.4359786474    3.3579064647
C        0.0650516913   -4.3429469019    5.2748659601
C        0.2756857270   -5.4849467928    4.4976375538
C       -1.2183915898   -3.3827405631    3.4726420771
C        1.3233561206   -1.4752888117    2.7703028578
C       -0.6665800554   -3.2694014029    4.7570431380
C       -0.2372736107   -5.5786166260    3.1974825234
C       -1.0000629473   -4.5158321920    2.6811796394
C        0.5569883417   -0.5315974344    3.5915111066
C        0.3097579057   -0.6052979790    4.9287815607
O       -2.2253444289   -1.1870740368    5.5220567374
O       -0.5132976927   -1.9181693641    7.1198082974
S       -0.8679583327   -1.7244330323    5.7045950168
Cl       0.0843058349   -7.0091811026    2.2422989964
Cl      -1.6615971002   -4.5743812050    1.0616230580
H        3.2391148539   -4.0673637875    0.5683263062
H        1.7844303885   -2.3626510035   -0.4979701726
H        3.4868770244   -4.1080300553    3.0383131131
H        0.5659552143   -0.7251084304    0.8872666367
H        2.2818584487   -2.4693211907    4.4351059890
H        0.4805181224   -4.2838312481    6.2779031018
H        0.8520896830   -6.3096863972    4.8993611231
H       -1.8061480541   -2.5655175973    3.0649059812
H        0.1760977120    0.3499428804    3.0855976163
H        0.7154193306    0.1412108296    5.5937436693
29   

C        2.6382731001   -3.4113612835    1.2929000837
C        1.8107644603   -2.4792467614    0.6620087581
C        2.8054845126   -3.3635835232    2.6789209079
C        1.1441092710   -1.5079509174    1.4173231349
C        2.1386221943   -2.3913761360    3.4325476031
C        0.0751547110   -4.3634877717    5.1654462479
C        0.2889526393   -5.4890504101    4.3659909070
C       -1.2221107804   -3.3755494556    3.3884053144
C        1.2882190430   -1.4597054698    2.8135285382
C       -0.6650236921   -3.2838559096    4.6720945968
C       -0.2291424945   -5.5605161937    3.0667420190
C       -1.0001760771   -4.4921886061    2.5742464060
C        0.5491190935   -0.4630326373    3.6015159598
C        0.1777163589   -0.5370859577    4.9009296734
O       -2.2813332893   -1.3052482344    5.5728639628
O       -0.4672665202   -1.9894049839    7.0582384273
S       -0.8888016516   -1.7705383933    5.6650201126
Cl       0.0953539064   -6.9713825787    2.0836979667
Cl      -1.6695190545   -4.5247655493    0.9572408472
H        3.1496537355   -4.1682265818    0.7085376102
H        1.6811753046   -2.5122247764   -0.4139765003
H        3.4495950477   -4.0827416358    3.1717906398
H        0.4992065095   -0.7982651668    0.9110305092
H        2.2782010714   -2.3670825451    4.5075769440
H        0.4925241506   -4.3228994378    6.1686292377
H        0.8707824966   -6.3182564203    4.7502851410
H       -1.8185040423   -2.5551872780    3.0004346737
H        0.3116182554    0.4649896388    3.0911070763
H        0.3762810435    0.3020358765    5.5497513221
29   

C        3.1676325318   -3.5334909509    1.9164363037
C        2.1347670513   -3.0607635319    1.1021896997
C        3.3178638739   -3.0278644300    3.2104294683
C        1.2534778426   -2.0848738505    1.5815063883
C        2.4330081373   -2.0561826125    3.6902397783
C        0.1844343432   -4.2670355892    4.4960128319
C        0.0638769764   -5.2718063401    3.5352772959
C       -1.7897136374   -3.2032800411    3.6098405168
C        1.3863902772   -1.5765131221    2.8832335265
C       -0.7304926393   -3.2087735273    4.5275249475
C       -0.9713365777   -5.2471711680    2.5941900661
C       -1.9149246225   -4.2037214234    2.6368957747
C        0.4412454624   -0.5694488990    3.3935683275
C        0.0186328725   -0.4506164304    4.6670491825
O       -1.7868955716   -1.4782599014    6.3419442492
O        0.5428875516   -2.1439779087    6.6846404312
S       -0.5093428163   -1.8299401467    5.7032337407
Cl      -1.0654322179   -6.5072017811    1.3833751578
Cl      -3.2294680575   -4.1241314662    1.4842014338
H        3.8518572775   -4.2879738770    1.5443447088
H        2.0145749716   -3.4518617255    0.0980897714
H        4.1206633324   -3.3865111104    3.8450002313
H        0.4528744167   -1.7343376795    0.9396827666
H        2.5624346703   -1.6734658211    4.6979801577
H        1.0069644850   -4.2955606542    5.2063005766
H        0.7897492311   -6.0756437782    3.5079064347
H       -2.5197957651   -2.3996491278    3.6349304510
H        0.0786681131    0.1633512400    2.6798946875
H       -0.2209748854    0.5207164550    5.0716285943
29   

C        3.1550933788   -3.5512569910    1.9810005810
C        2.1280667262   -3.0790725020    1.1589618641
C        3.3191664775   -3.0178609059    3.2622457300
C        1.2668751510   -2.0758093717    1.6178139500
C        2.4537332928   -2.0191257107    3.7216907750
C        0.1934555943   -4.2719233488    4.4212083247
C        0.0501792441   -5.2760340632    3.4630799605
C       -1.7967769043   -3.2032709059    3.5785626678
C        1.4135482124   -1.5401628956    2.9068730432
C       -0.7191598028   -3.2124701694    4.4743661379
C       -1.0054612007   -5.2492372931    2.5451876612
C       -1.9451688558   -4.2032562824    2.6082096141
C        0.4914195913   -0.4965766593    3.3940130478
C       -0.0667401049   -0.4280106557    4.6129763685
O       -1.7228825242   -1.5483047363    6.3760051538
O        0.6447411740   -2.1316113596    6.5668207338
S       -0.4748764917   -1.8412608197    5.6546260127
Cl      -1.1297374353   -6.5100549748    1.3378946483
Cl      -3.2847070227   -4.1211043779    1.4848378754
H        3.8242229340   -4.3266025639    1.6247084208
H        1.9969201285   -3.4913725494    0.1647668392
H        4.1175568985   -3.3755625096    3.9029082713
H        0.4707997667   -1.7244059932    0.9708304243
H        2.5934880755   -1.6138419886    4.7192407210
H        1.0310112693   -4.3027422611    5.1136159786
H        0.7736109321   -6.0813879883    3.4202810502
H       -2.5246262815   -2.3984070985    3.6196383410
H        0.2409266745    0.2912287565    2.6908557601
H       -0.4490897384    0.5116897621    4.9811190638
29   

C        3.1275498315   -3.5690805127    2.0182072994
C        2.1011836397   -3.0815236917    1.2042591667
C        3.3179264163   -3.0292521730    3.2932937132
C        1.2675408401   -2.0561552654    1.6649440509
C        2.4793764411   -2.0084859316    3.7545865828
C        0.2038370144   -4.2807856315    4.4060404401
C        0.0623702695   -5.2908579387    3.4538894578
C       -1.7950614595   -3.2274002840    3.5651413648
C        1.4412729649   -1.5138681593    2.9476182170
C       -0.7148747450   -3.2266638537    4.4578220864
C       -0.9969994650   -5.2748736092    2.5400586700
C       -1.9417517979   -4.2333395146    2.6006974692
C        0.5488647022   -0.4412576017    3.4356859218
C       -0.1477296657   -0.4286973687    4.5801756972
O       -1.7123633533   -1.5977990622    6.3909936578
O        0.6770567796   -2.1087245041    6.5122481899
S       -0.4769931785   -1.8506471920    5.6335721607
Cl      -1.1196635793   -6.5434424806    1.3407357526
Cl      -3.2860496340   -4.1644658361    1.4820874067
H        3.7755972148   -4.3614352000    1.6604030884
H        1.9491522679   -3.4987271583    0.2150955745
H        4.1156787982   -3.3991297915    3.9277846782
H        0.4717001451   -1.6915185003    1.0250080544
H        2.6377438036   -1.5979874036    4.7472179942
H        1.0440879172   -4.3032473081    5.0954591192
H        0.7899109797   -6.0925636622    3.4128418527
H       -2.5269452568   -2.4261796179    3.6042326119
H        0.4157035236    0.4062532537    2.7709866384
H       -0.6434203702    0.4750054295    4.9002444332
29   

C        1.9928864641   -3.0252064333    0.8731593225
C        1.0934487082   -1.9555087250    0.8725143060
C        2.7094652898   -3.3291688908    2.0339164641
C        0.9064297584   -1.1964384802    2.0331020920
C        2.5254093681   -2.5651737635    3.1919021356
C       -0.2612926683   -3.9911748158    5.4253916462
C        0.1591721057   -5.2871786908    5.1152491842
C       -0.9293645842   -3.6838195637    3.1294616863
C        1.6157291648   -1.4970033359    3.2072990660
C       -0.7924935662   -3.1691127553    4.4270411303
C        0.0484382545   -5.7902043502    3.8127471781
C       -0.5109603592   -4.9802145802    2.8085675071
C        1.4060280251   -0.7056417971    4.4417799888
C        0.2770703249   -0.6177839738    5.1553639018
O       -1.9173838102   -0.8275003348    3.6143673662
O       -2.1290599126   -1.3929730304    5.9856345200
S       -1.2765517802   -1.4461422823    4.7877277856
Cl       0.6084015866   -7.4105989197    3.4612053723
Cl      -0.6804713224   -5.5580499170    1.1646570920
H        2.1321550992   -3.6191863264   -0.0233591707
H        0.5359368391   -1.7149484842   -0.0258705102
H        3.4050459831   -4.1607632624    2.0377402460
H        0.2007497941   -0.3713222159    2.0220264974
H        3.0822736737   -2.8152746935    4.0878637419
H       -0.1655739450   -3.6186209176    6.4415752803
H        0.5813681659   -5.9156406528    5.8902968214
H       -1.3525814890   -3.0622483340    2.3453439776
H        2.2840170711   -0.2114046954    4.8450397463
H        0.2489466205   -0.0136913608    6.0492193272
29   

C        2.0057827685   -3.0173931929    0.8419733678
C        1.0978428052   -1.9558880096    0.8806344769
C        2.7349401869   -3.3492242346    1.9870651667
C        0.9139909938   -1.2337390956    2.0648592332
C        2.5537256772   -2.6224837094    3.1693159828
C       -0.2804920918   -3.9696233418    5.4410492304
C        0.1473767903   -5.2671344953    5.1477010500
C       -0.9389095451   -3.6916820952    3.1384878948
C        1.6336162947   -1.5642902764    3.2254498053
C       -0.8098038164   -3.1611967838    4.4305855220
C        0.0461893586   -5.7851191814    3.8502611078
C       -0.5120606705   -4.9892525706    2.8342270398
C        1.4256990953   -0.8172853644    4.4828525855
C        0.2570139186   -0.5880982184    5.0975551352
O       -1.9576741404   -0.8389692307    3.5931015919
O       -2.1332844554   -1.3617552767    5.9757257156
S       -1.2969987932   -1.4340557103    4.7674585603
Cl       0.6167880713   -7.4061853574    3.5195496067
Cl      -0.6687009088   -5.5855001242    1.1956686290
H        2.1427556897   -3.5826526579   -0.0732694265
H        0.5316506658   -1.6923792018   -0.0058309897
H        3.4382836926   -4.1738273935    1.9597424180
H        0.2034930249   -0.4129170240    2.0810904944
H        3.1208441735   -2.8956231962    4.0519969938
H       -0.1912730284   -3.5848760151    6.4533105164
H        0.5685593030   -5.8848914369    5.9318565567
H       -1.3609591837   -3.0811261356    2.3451089801
H        2.3212806719   -0.4528676135    4.9756698504
H        0.2095304688    0.1023428788    5.9256716220
29   

C        2.0453222589   -3.0038578972    0.8246776016
C        1.1182483399   -1.9602194708    0.8842768104
C        2.7784681989   -3.3469191805    1.9638359007
C        0.9190504763   -1.2674696656    2.0833417377
C        2.5816569003   -2.6499669738    3.1614918642
C       -0.2971588783   -3.9446188331    5.4543693122
C        0.1416101917   -5.2391366795    5.1637665737
C       -0.9604026575   -3.6783466363    3.1516875856
C        1.6419007246   -1.6102842881    3.2391436890
C       -0.8334236711   -3.1430184366    4.4420751951
C        0.0447808085   -5.7607718734    3.8674081699
C       -0.5215111495   -4.9724087346    2.8499873883
C        1.4140846867   -0.9000541771    4.5103590949
C        0.2256777130   -0.5425296280    5.0241797964
O       -2.0413396927   -0.8476759869    3.6165159661
O       -2.1177186522   -1.3336821072    6.0120088769
S       -1.3288064744   -1.4169174453    4.7729807657
Cl       0.6309539786   -7.3768699810    3.5396686080
Cl      -0.6723036466   -5.5729759675    1.2124925950
H        2.1943927622   -3.5462134001   -0.1024525434
H        0.5492908443   -1.6876893192    0.0023090983
H        3.4971596108   -4.1574486148    1.9198106627
H        0.1937600206   -0.4601094181    2.1141348890
H        3.1522286703   -2.9332097808    4.0387226447
H       -0.2105170128   -3.5564178287    6.4655997104
H        0.5685951543   -5.8514698793    5.9490369595
H       -1.3886271978   -3.0736611905    2.3570912273
H        2.2985686554   -0.6429508123    5.0841882880
H        0.1706962966    0.2411784216    5.7640873465
29   

C        2.1003628436   -3.0168064162    0.8191560398
C        1.1515299719   -1.9931892893    0.8805525755
C        2.8266282433   -3.3595441601    1.9627565844
C        0.9239382658   -1.3200524455    2.0856237599
C        2.6010643193   -2.6827160143    3.1669171180
C       -0.3174968397   -3.9388364473    5.4486190892
C        0.1290782202   -5.2254118715    5.1358310103
C       -1.0181389712   -3.6511935023    3.1594401730
C        1.6397857365   -1.6628277964    3.2464335943
C       -0.8751948193   -3.1298464868    4.4538094997
C        0.0191276396   -5.7316507913    3.8344287809
C       -0.5703125763   -4.9367733882    2.8353016773
C        1.3773105948   -0.9788394459    4.5233383938
C        0.1853130969   -0.5072739618    4.9364785143
O       -2.1748859855   -0.8581130491    3.7068684729
O       -2.0681326446   -1.3280020440    6.1052060969
S       -1.3724491886   -1.4097516955    4.8113919302
Cl       0.6184182525   -7.3367385633    3.4777013028
Cl      -0.7373537643   -5.5179478721    1.1924520423
H        2.2716510088   -3.5438047575   -0.1129743559
H        0.5878223548   -1.7213486207   -0.0049801497
H        3.5623791609   -4.1545200054    1.9170001656
H        0.1811299468   -0.5288607079    2.1170509122
H        3.1666336237   -2.9669719923    4.0470241130
H       -0.2194779615   -3.5617078365    6.4631036664
H        0.5733595314   -5.8430784724    5.9072143155
H       -1.4640711525   -3.0410920421    2.3788395811
H        2.2311490273   -0.8112293809    5.1718000901
H        0.1349208260    0.3734465283    5.5580268587
29   

C        2.2158959561   -3.0961005633    0.8618760475
C        1.2205093725   -2.1161584772    0.8823107498
C        2.9344398390   -3.3798133787    2.0262543400
C        0.9392652077   -1.4277121613    2.0672259871
C        2.6539077174   -2.6886913007    3.2106293423
C       -0.2941644602   -3.9446314299    5.4073052384
C        0.1524169483   -5.2095296818    5.0172932163
C       -1.1471049947   -3.5833268279    3.1808685101
C        1.6462131362   -1.7119363057    3.2490636939
C       -0.9270240560   -3.1086604241    4.4819091235
C       -0.0313232439   -5.6672019373    3.7064636907
C       -0.6982476618   -4.8467726619    2.7789049554
C        1.3243839411   -1.0170007913    4.5043598840
C        0.1282838398   -0.4729685229    4.8271813230
O       -2.3860196860   -0.8648129841    3.9773876455
O       -1.8971056839   -1.3595301006    6.3247476605
S       -1.4112127850   -1.4088173065    4.9367836589
Cl       0.5746015701   -7.2440036915    3.2491333715
Cl      -0.9579458478   -5.3676567113    1.1280236831
H        2.4294881492   -3.6344923533   -0.0548739880
H        0.6626931623   -1.8907923126   -0.0197852040
H        3.7072638133   -4.1400316320    2.0118680012
H        0.1613907026   -0.6708324251    2.0668673887
H        3.2147990096   -2.9278674838    4.1069648930
H       -0.1360100433   -3.6034334149    6.4270721361
H        0.6560877470   -5.8468570708    5.7342816761
H       -1.6528169242   -2.9522016182    2.4554645187
H        2.1359661734   -0.8842994700    5.2124195321
H        0.0774981337    0.5155584784    5.2567235729
29   

C        2.6768971322   -3.3423264829    1.2095419975
C        1.4368265691   -2.7069801791    1.1135050158
C        3.4646390300   -3.1560421109    2.3482839706
C        0.9841841068   -1.8918518703    2.1565046267
C        3.0071541529   -2.3453175425    3.3935996023
C       -0.1473282941   -3.9494859787    4.9854899304
C        0.1562944137   -5.1446027585    4.3319700082
C       -1.7286632051   -3.4166093277    3.2437645586
C        1.7560300269   -1.7111318615    3.3170730880
C       -1.0746341740   -3.0603900211    4.4313301115
C       -0.4658321576   -5.4829661460    3.1248756577
C       -1.4284964392   -4.6131466836    2.5793245257
C        1.2673555624   -0.8976570741    4.4350585254
C        0.0007845896   -0.4420834512    4.6481393599
O       -2.6472965915   -0.8558688761    4.7481409125
O       -1.3129581769   -1.5648528614    6.6815661342
S       -1.3825302856   -1.4441575034    5.2166551981
Cl      -0.0302157734   -6.9742977164    2.3194874787
Cl      -2.2402758253   -4.9902951789    1.0756070928
H        3.0269212578   -3.9755543209    0.4017922961
H        0.8225875192   -2.8470351570    0.2310099546
H        4.4303853105   -3.6432359450    2.4226531419
H        0.0212256892   -1.4029466003    2.0619578010
H        3.6295281418   -2.2190922747    4.2724943872
H        0.3542642817   -3.6998803283    5.9168355247
H        0.8921228585   -5.8169574499    4.7567477138
H       -2.4688292906   -2.7468898485    2.8144224148
H        2.0119541492   -0.5758655681    5.1561494307
H       -0.2004235915    0.6177053016    4.6278958971
29   

C        3.0106095460   -3.2112055202    1.1642704495
C        1.6684297383   -2.8281261444    1.1084055433
C        3.7865664354   -2.8578794566    2.2710521064
C        1.1046994148   -2.0933496860    2.1570329097
C        3.2185863108   -2.1300595394    3.3230317012
C       -0.2837889246   -3.9985071303    4.9701369200
C       -0.1003197981   -5.2144137932    4.3105055947
C       -1.9591156877   -3.3868320367    3.3459300653
C        1.8688635228   -1.7415967136    3.2828036226
C       -1.2007469100   -3.0626481162    4.4792515117
C       -0.8324388527   -5.5261964119    3.1592911652
C       -1.7799022845   -4.6043585691    2.6756097150
C        1.2769913305   -1.0028857039    4.3975854594
C       -0.0020855130   -0.5246148487    4.5430945662
O       -2.6424680606   -0.7913278318    4.9279860692
O       -1.1428588957   -1.5483884376    6.7284071957
S       -1.3654795570   -1.4326158144    5.2783610517
Cl      -0.5520534712   -7.0505764413    2.3465869358
Cl      -2.7258078291   -4.9465762473    1.2435754040
H        3.4485159501   -3.7787007895    0.3505368524
H        1.0618569834   -3.0998901741    0.2516953218
H        4.8300732335   -3.1491202229    2.3150540153
H        0.0634029625   -1.8006146153    2.0918636642
H        3.8368526518   -1.8688873432    4.1747756521
H        0.2999722688   -3.7726731644    5.8589033052
H        0.6248597503   -5.9257134704    4.6879889983
H       -2.6910800170   -2.6788620992    2.9663908132
H        1.9466207703   -0.7687972968    5.2190893349
H       -0.2405373310    0.4817279120    4.2365504040
29   

C        3.4365616521   -2.9927953493    1.0959592881
C        2.0396932564   -2.9566238008    1.1024058741
C        4.1499019487   -2.4214857493    2.1529652348
C        1.3587903438   -2.3454528097    2.1611590577
C        3.4670308140   -1.8185208661    3.2154714590
C       -0.4925014558   -4.1049186885    4.9853509470
C       -0.4781886092   -5.3502652895    4.3554552983
C       -2.1912315139   -3.3611507795    3.4422307591
C        2.0632571542   -1.7704198418    3.2319095748
C       -1.3390917696   -3.0920228939    4.5221603310
C       -1.3104408832   -5.6133203015    3.2612489522
C       -2.1822651483   -4.6078810282    2.8024318881
C        1.3546585436   -1.1353721192    4.3402092845
C        0.0527815110   -0.6746322947    4.4313703258
O       -2.5565901374   -0.7082996271    5.0329063679
O       -0.9771438940   -1.5576840076    6.7277594857
S       -1.3104751745   -1.4436780373    5.2988724073
Cl      -1.2486412848   -7.1827959433    2.4891705776
Cl      -3.2481268736   -4.8858851331    1.4423580877
H        3.9650122411   -3.4610225194    0.2728673831
H        1.4818914598   -3.4011503711    0.2857281540
H        5.2339681047   -2.4431665952    2.1487186518
H        0.2751026741   -2.3251422456    2.1491859682
H        4.0373345976   -1.3772014243    4.0254882504
H        0.1622211512   -3.9208046324    5.8336199983
H        0.1884524918   -6.1256908772    4.7145596713
H       -2.8694992161   -2.5905816838    3.0851445670
H        1.9435856045   -0.9849645341    5.2396043487
H       -0.2250680452    0.2111927413    3.8824494071
