39   

C        1.2307638198   -4.6073200959   -0.3278652454
C        2.3179500052   -3.2647119099    1.3426262828
C        0.7042838820    1.1875327714    1.4244391656
C        2.0626458384   -5.6832842087    0.0048886845
C        3.1309045193   -4.3516164630    1.6874612823
C       -0.0080792698    2.3580281927    1.7022718157
C       -1.4791424712    1.8803798556   -0.1289591065
C        1.3527189205   -3.3630866137    0.3240437002
C        0.3299782957    0.3422362200    0.3689912104
C       -0.7719017568    0.7029458671   -0.4275843873
C        3.0152620455   -5.5663405483    1.0125692822
C       -1.1094818208    2.7091096005    0.9263086170
C       -0.7445120147   -2.4227169650   -0.5765442128
C        0.5248826334   -2.1890954448   -0.0558720529
C        1.1433999936   -0.8482102778    0.0905892497
C        2.4015636298   -0.6031582889   -0.4540573826
C       -1.1815028391   -0.1267442734   -1.6109489223
C       -1.7528168029   -1.4498254254   -1.1335349964
C        3.8197895605   -0.7374119331    0.0752947803
O        3.8182783750   -6.6239477863    1.3268977634
O       -1.8121279915    3.8495222904    1.1846112292
H        0.5350801185   -4.7423942682   -1.1461012894
H        2.4174410329   -2.3412182950    1.8993683787
H        1.5638884200    0.9280934208    2.0313840002
H        1.9813673793   -6.6201733275   -0.5323977464
H        3.8515688026   -4.2392842411    2.4872093301
H        0.3067262217    2.9894654690    2.5234641332
H       -2.3326848761    2.1724177713   -0.7279630327
H       -1.0808522195   -3.4502272357   -0.6199240835
H        2.3709964759    0.2470187900   -1.1270242032
H       -1.9543879644    0.4049982444   -2.1746413259
H       -0.3372049474   -0.2946161323   -2.2869547690
H       -2.2360668702   -1.9392778675   -1.9849051895
H       -2.5325546815   -1.2643593981   -0.3870598642
H        3.8383784630   -0.5658253810    1.1551479362
H        4.4744950449   -0.0034965925   -0.4041123866
H        4.2067155304   -1.7384311983   -0.1367973854
H        4.4234493434   -6.3899200573    2.0500488340
H       -1.4261186530    4.3199306165    1.9422585836
39   

C        1.2414376348   -4.5866066286   -0.2580643575
C        2.3054433302   -3.1745719163    1.3699874318
C        0.6811948957    1.1614669702    1.4292391224
C        2.0508740715   -5.6542483010    0.1481631759
C        3.0961192954   -4.2523662811    1.7878761863
C       -0.0700704342    2.2934822590    1.7593161546
C       -1.5137651426    1.8627582711   -0.1073881402
C        1.3635068343   -3.3131922151    0.3346684230
C        0.3385270327    0.3611304400    0.3298402461
C       -0.7675898243    0.7240577267   -0.4562233646
C        2.9803900144   -5.4981943041    1.1719459007
C       -1.1773609568    2.6483245323    0.9922867299
C       -0.6982102493   -2.3903320619   -0.6710414869
C        0.5567378664   -2.1513510644   -0.1170832371
C        1.1734724134   -0.7982332567   -0.0000884784
C        2.3840404732   -0.5164295812   -0.5967094204
C       -1.1327869186   -0.0667041095   -1.6807307077
C       -1.6884533009   -1.4217223694   -1.2733497916
C        3.8073797990   -0.8948493298   -0.2367578486
O        3.7608603025   -6.5486319227    1.5587126698
O       -1.9181064253    3.7507520599    1.3036019382
H        0.5630531198   -4.7552202061   -1.0844867388
H        2.4034360988   -2.2250091984    1.8816317748
H        1.5435858988    0.8960490235    2.0297396970
H        1.9694559855   -6.6161099879   -0.3430675008
H        3.7991963725   -4.1087207989    2.5982023204
H        0.2183519706    2.8915518555    2.6145460631
H       -2.3718466630    2.1564967691   -0.6989185107
H       -1.0444510451   -3.4150650965   -0.6930098926
H        2.3819830270    0.4407863054   -1.1072467322
H       -1.8994599048    0.4727767085   -2.2455255118
H       -0.2668782461   -0.1917492498   -2.3383572736
H       -2.1075172958   -1.8992721688   -2.1644890069
H       -2.5167227654   -1.2753316439   -0.5718807521
H        3.9598234806   -0.8201323569    0.8433140780
H        4.5133244252   -0.2212024394   -0.7315578550
H        4.0179434086   -1.9181059401   -0.5618973052
H        4.3485575163   -6.2874074737    2.2869321961
H       -1.5562483938    4.1891770258    2.0918099595
39   

C        1.2306527026   -4.5514822380   -0.1989778472
C        2.3243107405   -3.0602096663    1.3365106061
C        0.6550360596    1.1197468103    1.4604669924
C        2.0116717577   -5.6090091131    0.2826113687
C        3.0879718046   -4.1262178508    1.8278513414
C       -0.1378996008    2.2000068515    1.8597848955
C       -1.5519810964    1.8513176703   -0.0487500044
C        1.3799001716   -3.2444277128    0.3094410972
C        0.3464894884    0.3888503064    0.3049071843
C       -0.7646479148    0.7644860596   -0.4647622599
C        2.9417857442   -5.4075610769    1.2977539813
C       -1.2510330794    2.5695701823    1.1069051939
C       -0.6420252753   -2.3319181414   -0.8035210340
C        0.5959214759   -2.0944772689   -0.2103866197
C        1.2018670247   -0.7290488780   -0.0973474485
C        2.3714002128   -0.4007209502   -0.7233489750
C       -1.0836632848    0.0375319693   -1.7418268035
C       -1.6124966752   -1.3569485500   -1.4345984178
C        3.7595811086   -0.9863811654   -0.5909691412
O        3.6933114176   -6.4488656847    1.7592634284
O       -2.0323960497    3.6209548375    1.4877285992
H        0.5503927614   -4.7630624318   -1.0134881889
H        2.4483870673   -2.0818113745    1.7845545734
H        1.5195343703    0.8394043863    2.0510767357
H        1.9060239226   -6.6000716672   -0.1414455702
H        3.7936676949   -3.9451907672    2.6284099814
H        0.1217557680    2.7456231611    2.7582708570
H       -2.4147335728    2.1549444699   -0.6282593255
H       -1.0018583100   -3.3515215750   -0.8206978373
H        2.4066928562    0.6219250958   -1.0837190605
H       -1.8477828260    0.5917474661   -2.2956714391
H       -0.1981097092   -0.0263616388   -2.3817755295
H       -1.9594034322   -1.8024166961   -2.3721046000
H       -2.4885942339   -1.2671538155   -0.7836473808
H        4.0702958154   -0.9991826299    0.4571697582
H        4.4768513109   -0.3826153435   -1.1548130086
H        3.7779528955   -2.0065724047   -0.9862561642
H        4.2822271579   -6.1545251299    2.4737683220
H       -1.6966525359    4.0095079795    2.3128467125
39   

C        1.2415171156   -4.5475046982   -0.1427021925
C        2.3468536171   -3.0066327880    1.3345298734
C        0.6604531854    1.0765246518    1.4681711382
C        1.9979058645   -5.5952775087    0.3963909312
C        3.0870373349   -4.0617771472    1.8816048149
C       -0.1602579158    2.1210713199    1.9047446285
C       -1.5566366563    1.8148081267   -0.0255322437
C        1.4081595737   -3.2209250202    0.3071531264
C        0.3734397038    0.3858336359    0.2830170251
C       -0.7418542754    0.7634052352   -0.4775984797
C        2.9218267130   -5.3635375141    1.4106880745
C       -1.2785169141    2.4934688896    1.1600757911
C       -0.5789710680   -2.3203473312   -0.8869708368
C        0.6453156932   -2.0810111907   -0.2662788395
C        1.2393202888   -0.7078861955   -0.1560251608
C        2.4100669962   -0.3605077898   -0.7494383112
C       -1.0306118807    0.0738790243   -1.7832109154
C       -1.5367719762   -1.3430159060   -1.5377942810
C        3.7218185669   -1.1062034279   -0.8010323597
O        3.6491323640   -6.3954764729    1.9285579401
O       -2.0875495212    3.5087859790    1.5790720593
H        0.5647230664   -4.7873341477   -0.9519975408
H        2.4879446395   -2.0111966146    1.7380628514
H        1.5264883462    0.7907765705    2.0539208083
H        1.8769002845   -6.6033611717    0.0190916341
H        3.7894837856   -3.8558453614    2.6790454947
H        0.0808331187    2.6356775555    2.8264407762
H       -2.4233184563    2.1199462058   -0.5982526315
H       -0.9465749931   -3.3369072347   -0.9004104862
H        2.5089541482    0.6925885214   -0.9902439919
H       -1.7946867136    0.6337963817   -2.3313171820
H       -0.1334579763    0.0493266432   -2.4095916471
H       -1.8352679187   -1.7679673070   -2.5011006908
H       -2.4412544839   -1.2889325990   -0.9227941071
H        4.1436924907   -1.2083853783    0.2024416633
H        4.4382260784   -0.5579727673   -1.4200004649
H        3.5779526440   -2.0996072966   -1.2368207888
H        4.2357881872   -6.0786462387    2.6352950196
H       -1.7693603297    3.8665541787    2.4248464454
39   

C        1.2434413923   -4.4908360921   -0.1573922720
C        2.3446229125   -2.9284803240    1.3003672646
C        0.6248866794    1.0999028218    1.4589617204
C        1.9912139205   -5.5318831129    0.4062572845
C        3.0769718473   -3.9765820682    1.8708487344
C       -0.2141575327    2.1203446087    1.9171363861
C       -1.6029062796    1.8334212555   -0.0224214849
C        1.4115079425   -3.1569175945    0.2702936925
C        0.3503139873    0.4316145781    0.2580817201
C       -0.7696599992    0.8062124123   -0.4957631042
C        2.9090251236   -5.2858724419    1.4226723559
C       -1.3378244205    2.4900325361    1.1788679808
C       -0.5614143416   -2.2688003648   -0.9613792101
C        0.6538854183   -2.0235532367   -0.3253322463
C        1.2261581487   -0.6428978940   -0.2049514004
C        2.4193218151   -0.2848782522   -0.7334402375
C       -1.0392526925    0.1403530253   -1.8182454551
C       -1.5211330374   -1.2924161789   -1.6130402518
C        3.6457043825   -1.1283670117   -0.9632045040
O        3.6279898212   -6.3113712550    1.9644138195
O       -2.1646699980    3.4815457500    1.6195450659
H        0.5709646060   -4.7440196161   -0.9660716454
H        2.4900213714   -1.9266437082    1.6862838250
H        1.4938218226    0.8145486407    2.0406091297
H        1.8677420387   -6.5462795230    0.0470837872
H        3.7756899042   -3.7589989225    2.6684977781
H        0.0165165400    2.6178624479    2.8508291454
H       -2.4734931045    2.1365587444   -0.5901975262
H       -0.9252191044   -3.2864380143   -0.9810592352
H        2.5766775803    0.7805327153   -0.8628882677
H       -1.8084445025    0.6998139459   -2.3595880524
H       -0.1370523668    0.1468353783   -2.4378738970
H       -1.7932315089   -1.7014865557   -2.5909123474
H       -2.4384252651   -1.2676328674   -1.0154314780
H        4.1522045261   -1.3345719608   -0.0164242735
H        4.3442980687   -0.5967302682   -1.6160579665
H        3.3778266927   -2.0734637144   -1.4452895212
H        4.2108825359   -5.9842776000    2.6696038365
H       -1.8545010178    3.8242599022    2.4745015367
39   

C        1.2507095462   -4.4801219239   -0.1452371936
C        2.3429451933   -2.9075339399    1.3082743666
C        0.6149864071    1.1034042846    1.4511355626
C        1.9924066600   -5.5176323083    0.4326831198
C        3.0695457074   -3.9520483627    1.8925544714
C       -0.2335871666    2.1138026110    1.9139334980
C       -1.6170605524    1.8261969051   -0.0296134725
C        1.4172898420   -3.1428464936    0.2726823733
C        0.3475379082    0.4398655714    0.2456986868
C       -0.7745344879    0.8085614289   -0.5070792781
C        2.9029496856   -5.2646912271    1.4538558257
C       -1.3593364926    2.4780777578    1.1759999070
C       -0.5470293045   -2.2640489068   -0.9798197376
C        0.6644920463   -2.0135086264   -0.3384912802
C        1.2265625299   -0.6297051992   -0.2222089154
C        2.4560990557   -0.2834620634   -0.6591222756
C       -1.0345987742    0.1465261316   -1.8335453564
C       -1.5066585062   -1.2913453542   -1.6381045181
C        3.6017059608   -1.1815321602   -1.0401860412
O        3.6164404277   -6.2867715459    2.0091149863
O       -2.1955937992    3.4594254001    1.6216343895
H        0.5840316533   -4.7393344551   -0.9567835234
H        2.4883667336   -1.9027818641    1.6865091913
H        1.4842088455    0.8209632215    2.0337910730
H        1.8698561749   -6.5347832070    0.0810423979
H        3.7630211350   -3.7289048328    2.6932409375
H       -0.0091211990    2.6072145329    2.8513263629
H       -2.4892746196    2.1250180969   -0.5971442049
H       -0.9100970299   -3.2819850735   -0.9956479544
H        2.6703411970    0.7793326494   -0.6911128665
H       -1.8050615525    0.7032455847   -2.3758801923
H       -0.1295032639    0.1625370064   -2.4488614004
H       -1.7668420816   -1.6987010453   -2.6199119846
H       -2.4296362273   -1.2753667132   -1.0490191306
H        4.1543180468   -1.4979807593   -0.1514007680
H        4.2911777463   -0.6422353798   -1.6964292251
H        3.2407598989   -2.0642412652   -1.5767770864
H        4.1952698479   -5.9546606165    2.7153073319
H       -1.8906829980    3.7982389114    2.4800363371
39   

C        1.2867963606   -4.4489335306   -0.1441696727
C        2.3654175736   -2.8760001402    1.3190216502
C        0.6300922327    1.1397268699    1.4377601533
C        2.0279216450   -5.4854601639    0.4360372911
C        3.0914855363   -3.9197349294    1.9055420566
C       -0.2235685890    2.1470263637    1.8977050240
C       -1.6060893016    1.8459429267   -0.0443728547
C        1.4467146328   -3.1118353652    0.2770748855
C        0.3661177578    0.4709289083    0.2338164470
C       -0.7585012563    0.8310528092   -0.5188272746
C        2.9314714427   -5.2319745610    1.4631551069
C       -1.3513418280    2.5030999344    1.1590232832
C       -0.5190409769   -2.2421316113   -0.9773146402
C        0.6925557208   -1.9848725729   -0.3385699529
C        1.2474666777   -0.5987596955   -0.2312019240
C        2.5156016120   -0.2750916368   -0.5591040231
C       -1.0154400123    0.1627516973   -1.8425894410
C       -1.4818756341   -1.2761094509   -1.6409427410
C        3.6001785020   -1.1780802486   -1.0773583548
O        3.6445649184   -6.2531834489    2.0205283164
O       -2.1926705964    3.4812373897    1.6021516833
H        0.6260786963   -4.7082549166   -0.9606006031
H        2.5056150448   -1.8719345397    1.7007929612
H        1.4996558204    0.8630945569    2.0227083504
H        1.9104769165   -6.5021992254    0.0814620184
H        3.7793820965   -3.6962986484    2.7109375040
H       -0.0017237423    2.6440567992    2.8338233666
H       -2.4801479428    2.1382119547   -0.6124492625
H       -0.8799857987   -3.2609693459   -0.9857442837
H        2.7739904924    0.7763699191   -0.4962044786
H       -1.7876777336    0.7143078409   -2.3876452336
H       -0.1098916076    0.1796072059   -2.4572835735
H       -1.7395949280   -1.6889501640   -2.6210972113
H       -2.4054363851   -1.2610834569   -1.0527368037
H        4.1812097059   -1.5952505390   -0.2503278607
H        4.2791253880   -0.6088834620   -1.7191490453
H        3.1766503441   -1.9950582639   -1.6695238574
H        4.2182311299   -5.9209354308    2.7308475748
H       -1.8893089177    3.8240357586    2.4595261963
39   

C        1.2648692476   -4.4553607418   -0.1510841344
C        2.3398218329   -2.8917390243    1.3244473018
C        0.6011436722    1.1433240838    1.4199427135
C        2.0081645610   -5.4949102158    0.4206598802
C        3.0679498360   -3.9387540769    1.9027037189
C       -0.2531316306    2.1531798930    1.8729072800
C       -1.6335173098    1.8397594248   -0.0682372634
C        1.4216585513   -3.1210128819    0.2801970826
C        0.3397750229    0.4671795399    0.2185931703
C       -0.7857173560    0.8216065878   -0.5353858261
C        2.9110442042   -5.2477359891    1.4497366402
C       -1.3797995595    2.5049017774    1.1308246549
C       -0.5522285482   -2.2537631500   -0.9601850799
C        0.6636874697   -1.9930439336   -0.3307286081
C        1.2206781028   -0.6073755438   -0.2402504962
C        2.5205051619   -0.3147035992   -0.4566651193
C       -1.0457090378    0.1410523683   -1.8518210719
C       -1.5159345942   -1.2935349564   -1.6308099922
C        3.5623845272   -1.1811952861   -1.1071506230
O        3.6262498201   -6.2718927654    1.9989413716
O       -2.2217391718    3.4855775069    1.5671406465
H        0.6052537005   -4.7092250968   -0.9702071724
H        2.4767387704   -1.8914693888    1.7167434227
H        1.4684099773    0.8701569842    2.0098933720
H        1.8930803227   -6.5089423286    0.0576593287
H        3.7547713734   -3.7204706151    2.7104121806
H       -0.0328334652    2.6552930765    2.8066848841
H       -2.5077027745    2.1275922093   -0.6383653384
H       -0.9145400385   -3.2722528421   -0.9567358626
H        2.8118193453    0.7179882952   -0.2992890725
H       -1.8175200544    0.6885657750   -2.4015208189
H       -0.1410017238    0.1481721284   -2.4679783981
H       -1.7790069596   -1.7174906469   -2.6047685433
H       -2.4368733679   -1.2688102514   -1.0388021874
H        4.1632046063   -1.6922420768   -0.3496817054
H        4.2289430915   -0.5646522098   -1.7173950973
H        3.0957251031   -1.9277893525   -1.7571404176
H        4.1991792172   -5.9441717927    2.7119417859
H       -1.9192703358    3.8337135369    2.4226784213
39   

C        1.2469435618   -4.4732733054   -0.1640807081
C        2.3196627871   -2.9293548740    1.3331043461
C        0.5825694846    1.1409790163    1.3942838250
C        1.9924057448   -5.5197687914    0.3916821881
C        3.0500297700   -3.9835715021    1.8954634202
C       -0.2696782526    2.1587168610    1.8327505795
C       -1.6410366262    1.8312572139   -0.1115573985
C        1.4016031240   -3.1445321587    0.2853576065
C        0.3271850076    0.4543178365    0.1962652577
C       -0.7955177005    0.8044740985   -0.5640587531
C        2.8957125214   -5.2860054721    1.4232830899
C       -1.3902712486    2.5082625641    1.0812011012
C       -0.5809448038   -2.2740678699   -0.9343161938
C        0.6408792531   -2.0122171541   -0.3162680211
C        1.2073580351   -0.6293784800   -0.2493445511
C        2.5313541953   -0.3726870207   -0.3491022739
C       -1.0597280961    0.1052093587   -1.8689861569
C       -1.5417559114   -1.3200103113   -1.6173747894
C        3.5565162665   -1.1625556930   -1.1145980325
O        3.6134863687   -6.3167297472    1.9566212609
O       -2.2301957853    3.4968365531    1.5033340896
H        0.5880075519   -4.7158400758   -0.9873010861
H        2.4529409969   -1.9363877711    1.7441076177
H        1.4431050934    0.8703232353    1.9950938221
H        1.8790740146   -6.5284725391    0.0135948757
H        3.7362280867   -3.7761058668    2.7065311916
H       -0.0526638294    2.6683698457    2.7632195813
H       -2.5123574009    2.1155155745   -0.6878139768
H       -0.9475563625   -3.2910081392   -0.9149246162
H        2.8426046922    0.6344382941   -0.0950468772
H       -1.8278405221    0.6486358792   -2.4278299860
H       -0.1551766791    0.0932020042   -2.4852930863
H       -1.8136653346   -1.7608314223   -2.5813552592
H       -2.4591017990   -1.2761613993   -1.0208537679
H        4.1713454060   -1.7530318747   -0.4293545026
H        4.2092665300   -0.4849871432   -1.6727926136
H        3.0705617066   -1.8381177211   -1.8253962041
H        4.1876270531   -5.9981621235    2.6727727941
H       -1.9300007583    3.8529596472    2.3563890354
39   

C        1.2328228492   -4.4941264271   -0.1466947471
C        2.3004983352   -2.9773206411    1.3808373291
C        0.5750316476    1.1352129699    1.3882655364
C        1.9783739216   -5.5501026374    0.3904404080
C        3.0309241234   -4.0412915001    1.9247064164
C       -0.2764495495    2.1624762438    1.8049135088
C       -1.6231283242    1.8233873433   -0.1532539225
C        1.3858341270   -3.1731453685    0.3259751200
C        0.3353305193    0.4385907572    0.1909969999
C       -0.7787119112    0.7860804272   -0.5837373713
C        2.8800007715   -5.3346283845    1.4272479359
C       -1.3835671950    2.5121424656    1.0346640805
C       -0.5981906093   -2.2933902640   -0.8787078841
C        0.6284346029   -2.0337317552   -0.2685954759
C        1.2152580444   -0.6581268831   -0.2331263238
C        2.5530117694   -0.4385905814   -0.2165196383
C       -1.0428159358    0.0643763736   -1.8752626874
C       -1.5467927771   -1.3457581825   -1.5867548312
C        3.5873489972   -1.1159534348   -1.0760158063
O        3.5993500781   -6.3740592312    1.9412244403
O       -2.2230597929    3.5097581583    1.4358584954
H        0.5767928014   -4.7209958253   -0.9768702322
H        2.4295794674   -1.9939923719    1.8150670000
H        1.4214759717    0.8655252428    2.0090356173
H        1.8674002252   -6.5514324555   -0.0074198704
H        3.7145137886   -3.8486043906    2.7415830076
H       -0.0697239970    2.6788268372    2.7340496641
H       -2.4870259673    2.1046775773   -0.7419913202
H       -0.9740514073   -3.3065809371   -0.8382917023
H        2.8710740308    0.5352510698    0.1377325184
H       -1.8007405173    0.6048248259   -2.4506457281
H       -0.1349463905    0.0242985365   -2.4854277833
H       -1.8241486271   -1.8082916808   -2.5389220305
H       -2.4637443401   -1.2734683309   -0.9923145703
H        4.2066433712   -1.7812278022   -0.4674673981
H        4.2317590102   -0.3688217408   -1.5484782581
H        3.1045826949   -1.7066283204   -1.8607440454
H        4.1759335050   -6.0673494738    2.6605651095
H       -1.9322845801    3.8722270620    2.2895170315
39   

C        1.1950866632   -4.5107840412   -0.1146971636
C        2.2625133566   -3.0192371872    1.4370926276
C        0.5598723800    1.1496627253    1.3527961875
C        1.9416453537   -5.5752871852    0.4035587187
C        2.9940350700   -4.0920004810    1.9622536158
C       -0.2840679526    2.1972381303    1.7316231168
C       -1.6002682636    1.8327955821   -0.2408527054
C        1.3491973711   -3.1970041913    0.3775787333
C        0.3369998757    0.4311749832    0.1630499742
C       -0.7637068674    0.7739397495   -0.6333315599
C        2.8449580304   -5.3765603621    1.4420308383
C       -1.3709346491    2.5461204693    0.9339984342
C       -0.6354783181   -2.3082538458   -0.8120692185
C        0.5981732881   -2.0510091620   -0.2145758759
C        1.2123121637   -0.6873709240   -0.2253971645
C        2.5565712203   -0.5052566544   -0.1067887229
C       -1.0327593655    0.0139154828   -1.9003231609
C       -1.5682496255   -1.3709657445   -1.5535703700
C        3.6218125278   -1.0369009739   -1.0329322893
O        3.5680509260   -6.4234316864    1.9352556785
O       -2.2030694658    3.5637697225    1.2985099484
H        0.5398098334   -4.7227133360   -0.9496274649
H        2.3894703420   -2.0447712325    1.8910302346
H        1.3853922354    0.8831694460    2.0021372708
H        1.8317000360   -6.5694824546   -0.0120772045
H        3.6776445243   -3.9130154388    2.7822006472
H       -0.0876472236    2.7294253091    2.6540643036
H       -2.4526931439    2.1096785156   -0.8480804172
H       -1.0238305229   -3.3153755438   -0.7415088962
H        2.8702377534    0.4265978567    0.3480790586
H       -1.7774142486    0.5470984477   -2.4993050780
H       -0.1228478636   -0.0692498499   -2.5029775439
H       -1.8591126111   -1.8657618522   -2.4852371726
H       -2.4810954582   -1.2549842378   -0.9596021460
H        4.2443817347   -1.7670543577   -0.5077596882
H        4.2563973677   -0.2200921842   -1.3890215435
H        3.1628542766   -1.5268523127   -1.8971587147
H        4.1527590624   -6.1266332836    2.6521683420
H       -1.9211879256    3.9417625035    2.1484364737
39   

C        1.1581123014   -4.5244975893   -0.0989966696
C        2.2358471931   -3.0532313840    1.4646108167
C        0.5523240709    1.1533823699    1.3133843360
C        1.9050207315   -5.5965399588    0.4025352547
C        2.9678846673   -4.1337932539    1.9732592551
C       -0.2838721811    2.2166922044    1.6636542930
C       -1.5759480210    1.8370181685   -0.3198108704
C        1.3187093945   -3.2161897044    0.4058707241
C        0.3433836482    0.4202510138    0.1277431043
C       -0.7474379940    0.7615232028   -0.6838443153
C        2.8148459291   -5.4116100216    1.4376658402
C       -1.3533379094    2.5675612546    0.8450840046
C       -0.6673880828   -2.3173288808   -0.7672483290
C        0.5744903895   -2.0642095352   -0.1846221240
C        1.2136119653   -0.7142019865   -0.2399069068
C        2.5614861687   -0.5563703900   -0.0514792858
C       -1.0248999297   -0.0274266353   -1.9301342935
C       -1.5867852196   -1.3889468652   -1.5359406673
C        3.6721392449   -0.8851878383   -1.0220480445
O        3.5408706195   -6.4650499042    1.9122654517
O       -2.1775788420    3.6009428825    1.1822211309
H        0.4993549385   -4.7242244945   -0.9343923352
H        2.3660511639   -2.0853389198    1.9310870395
H        1.3568279140    0.8898766485    1.9889289723
H        1.7916298151   -6.5852038169   -0.0252091346
H        3.6558764715   -3.9661717776    2.7919171560
H       -0.0953671318    2.7590601169    2.5818411570
H       -2.4192976029    2.1116789934   -0.9405288625
H       -1.0684737523   -3.3172564261   -0.6678051889
H        2.8720325859    0.2667883908    0.5785066408
H       -1.7595403489    0.5002923280   -2.5460555151
H       -0.1155641335   -0.1463189868   -2.5275626494
H       -1.8903277787   -1.9092021689   -2.4494774771
H       -2.4950333790   -1.2362031926   -0.9431159815
H        4.5724914026   -0.3113383791   -0.7837849712
H        3.3603047267   -0.6448578924   -2.0427354698
H        3.9090064801   -1.9520204144   -0.9698547696
H        4.1378012820   -6.1759417356    2.6221858643
H       -1.9011289371    3.9901635149    2.0288843718
39   

C        1.1030237563   -4.5608004627   -0.0371781035
C        2.2271043070   -3.0719785307    1.4759681104
C        0.5830391505    1.1272157475    1.2545000033
C        1.8334688088   -5.6346753922    0.4841435591
C        2.9428134889   -4.1539723836    2.0047617616
C       -0.2490064516    2.1964737549    1.5954049329
C       -1.5335154075    1.8136332535   -0.3910405191
C        1.2952240504   -3.2431004610    0.4315688536
C        0.3784521430    0.3885580809    0.0697843292
C       -0.7099518658    0.7307826776   -0.7450310132
C        2.7583077918   -5.4417949820    1.5042299928
C       -1.3119758337    2.5495333359    0.7704024924
C       -0.6803812875   -2.3379585913   -0.7548878056
C        0.5689595267   -2.0927535384   -0.1840229951
C        1.2388453049   -0.7599312932   -0.2887327245
C        2.5933197107   -0.6050998287   -0.0853803012
C       -0.9966759423   -0.0733953133   -1.9785818847
C       -1.5805064899   -1.4171561331   -1.5555614487
C        3.7405458128   -0.6805706979   -1.0726426627
O        3.4684194292   -6.4972715225    1.9980452431
O       -2.1330478529    3.5877133325    1.1004026877
H        0.4320087061   -4.7690693969   -0.8606309416
H        2.3815569603   -2.0964844145    1.9177732656
H        1.3757834908    0.8658245252    1.9437469266
H        1.6955701064   -6.6314110999    0.0831616197
H        3.6429991814   -3.9796548427    2.8115822487
H       -0.0630798080    2.7406987275    2.5130716320
H       -2.3745771706    2.0875378284   -1.0151188379
H       -1.1035018886   -3.3244843108   -0.6193622980
H        2.8776487011    0.0951745845    0.6872829325
H       -1.7220439383    0.4541222899   -2.6055422128
H       -0.0880989362   -0.2183338501   -2.5713280369
H       -1.8847028622   -1.9559600222   -2.4580246633
H       -2.4908211548   -1.2370095804   -0.9736374863
H        4.5895107029   -0.0853398287   -0.7232954388
H        3.4198269636   -0.3000564154   -2.0469559007
H        4.0612266734   -1.7200310029   -1.1895523533
H        4.0822001786   -6.2015971846    2.6906541410
H       -1.8611838923    3.9755762675    1.9492225256
