30

C      4.93509    1.11263   -0.95899
C      2.35183   -2.25040    2.18327
C      1.61184   -0.67032    0.48447
C      5.03272    2.47818   -0.72151
C      1.22002   -1.96613    2.94526
C      0.46535   -0.40698    1.22863
C      4.33523    0.73203    1.36042
C      2.56600   -1.57873    0.97182
C      4.54466    0.23425    0.06447
C      4.80490    2.99126    0.56343
C      0.28611   -1.04960    2.45682
C      4.47706    2.09294    1.59732
N      3.69479   -1.97033    0.18200
N      4.52322   -1.15309   -0.28486
N     -2.29345   -1.85699    2.87243
O     -0.88401   -1.01903    4.81993
O     -1.68909    0.61180    2.99788
O      4.93434    4.32940    0.75251
S     -1.18075   -0.69640    3.42113
Cl     4.24116    2.72968    3.22092
H      5.14593    0.70470   -1.94298
H      3.08542   -2.97462    2.52561
H      1.77499   -0.17057   -0.46508
H      5.30787    3.17180   -1.50997
H      1.06245   -2.44197    3.90787
H     -0.27278    0.30713    0.87759
H      4.08361    0.07430    2.18311
H     -2.57027   -2.45460    3.65029
H     -3.10053   -1.38553    2.46602
H      4.75957    4.53989    1.68775
