28

C      0.41828   -2.68595   -1.20727
C      0.26494   -2.82127   -2.59188
C     -0.36198   -0.41096   -1.34130
C      0.10126   -1.48251   -0.56466
C     -0.51878   -0.52261   -2.72265
C     -0.20845   -1.74655   -3.32907
C      3.01214    2.16484   -3.37272
C      2.84523    2.73132   -4.78483
C      0.81345    2.06329   -3.88479
C      0.25505   -1.32690    0.93154
C     -0.21988    1.10542   -4.46008
O      1.84598    1.35054   -3.22918
O      1.41992    2.79899   -4.95184
O     -1.04206    0.53563   -3.43117
F     -0.37955   -1.88475   -4.67297
H      0.78515   -3.52939   -0.62813
H      0.49588   -3.75158   -3.10250
H     -0.60495    0.54413   -0.88249
H      3.89011    1.52904   -3.24621
H      3.02087    2.96205   -2.61592
H      3.26702    3.73385   -4.90147
H      3.27068    2.06395   -5.54336
H      0.33988    2.77159   -3.18606
H      0.89320   -0.47132    1.17807
H     -0.71463   -1.15997    1.41426
H      0.70183   -2.21843    1.38004
H      0.28240    0.33817   -5.05374
H     -0.89714    1.67114   -5.10296
