32

C      7.88047   -2.60065    4.52552
C      1.77422   -0.42981   -0.02892
C      0.49635   -0.35988    0.53257
C      2.84609   -0.83156    0.76377
C      0.31120   -0.68884    1.87697
C      6.76748   -2.71367   -0.09636
C      7.02574   -2.90430   -1.42210
C      9.05776   -3.18951   -0.04563
C      2.66480   -1.16283    2.11993
C      7.94221   -2.87688    0.72802
C      1.37387   -1.09103    2.69924
C      3.86268   -1.57557    2.86913
C      5.86877   -2.15327    3.21165
C      8.11134   -2.79492    2.16053
C      7.28148   -2.52061    3.21731
C      1.09419   -1.42665    4.14365
N      8.39678   -2.67371    5.56759
N      5.06599   -1.83750    2.23141
N      3.92586   -1.72075    4.18080
O      5.25499   -2.10347    4.41594
S      8.69966   -3.28231   -1.71810
H      1.93436   -0.17234   -1.07229
H     -0.35291   -0.05045   -0.07120
H      3.84460   -0.88389    0.34401
H     -0.68626   -0.63333    2.30581
H      5.79724   -2.46014    0.30513
H      6.33334   -2.84430   -2.25219
H     10.06547   -3.37140    0.30782
H      9.12934   -3.01704    2.47282
H      1.45431   -2.42633    4.40322
H      1.60511   -0.73586    4.82052
H      0.02044   -1.37899    4.34216
