24

C      0.10261   -0.30848    1.03157
C      1.26347    0.04166    1.71792
C      5.19007   -1.20266    7.00444
C     -0.67639   -1.34406    1.54960
C      6.17374   -1.20897    7.95555
C      6.56049    0.52146    6.21460
C      1.62116   -0.63798    2.89199
C      5.40949   -0.20405    5.99618
C      0.75137   -1.67197    3.32098
C      4.49770   -0.00057    4.87340
C      2.83621   -0.27168    3.61061
N     -0.36036   -2.01064    2.66778
N      3.35479   -0.76145    4.70553
N      4.68508    0.91199    3.93972
O      3.57778    0.73883    3.08895
O      1.02988   -2.36894    4.44035
S      7.38075   -0.00072    7.63855
H     -0.19174    0.20446    0.12202
H      1.90290    0.84006    1.35580
H      4.33573   -1.86952    6.99895
H     -1.59261   -1.65678    1.05235
H      6.26347   -1.84958    8.82341
H      6.95573    1.32735    5.61013
H      0.30306   -3.01446    4.53179
