23

C      5.46959   -2.23812    2.94193
C      4.35000   -1.94956    2.57525
C      1.95484   -0.88635   -0.06148
C      0.74009   -0.83093    0.63090
C      3.11951   -1.25694    0.60564
C      0.70554   -1.14799    1.98748
C      3.10254   -1.58155    1.97783
C      1.87018   -1.52428    2.67568
C      1.80014   -1.85938    4.12953
C     -1.08094   -1.82268    6.37397
C      0.38082   -2.03657    6.02650
O      2.74154   -2.20923    4.81632
O      0.53968   -1.72922    4.61847
H      6.42759   -2.50209    3.33661
H      1.99387   -0.64099   -1.11955
H     -0.17254   -0.54253    0.11673
H      4.06591   -1.30206    0.07601
H     -0.23041   -1.10756    2.53169
H     -1.37952   -0.78626    6.19003
H     -1.72477   -2.47998    5.78185
H     -1.24389   -2.04486    7.43356
H      0.69793   -3.06921    6.19728
H      1.04123   -1.38384    6.60416
