44

C     -1.16673   -7.43108    3.59739
C     -1.11053   -7.06183    2.25123
C     -2.49085   -5.49102    4.07843
C     -3.55735   -1.88054    1.58030
C     -1.86051   -6.65411    4.53566
C     -1.74198   -5.90240    1.78379
C     -2.42297   -5.12690    2.73441
C     -4.73647   -2.66944    1.75189
C     -2.53286   -2.73740    1.97329
C     -3.51051   -0.47132    1.17489
C     -2.08433   -1.61660   -1.14425
C     -0.98616    0.53101   -1.12200
C     -0.83843   -2.19794   -1.80808
C      0.23342   -0.11875   -1.76370
C     -1.90470   -7.03842    5.99632
C     -1.69987   -5.51007    0.32734
C     -6.15052   -2.25622    1.48346
N     -4.45026   -3.90018    2.17794
N     -2.70900    0.17533    0.39740
N     -3.09023   -3.93203    2.31736
N     -1.70452   -0.46230   -0.31253
O     -0.13670   -1.22982   -2.58042
Cl    -0.84590   -2.45012    2.12918
H     -0.67002   -8.34328    3.92092
H     -0.57714   -7.69423    1.54541
H     -3.04643   -4.85518    4.76274
H     -4.27092    0.16554    1.62870
H     -2.81015   -1.30172   -1.91244
H     -2.55095   -2.39123   -0.53790
H     -0.67617    1.34593   -0.46366
H     -1.64246    0.94769   -1.90285
H     -0.17457   -2.61178   -1.03387
H     -1.12126   -3.00000   -2.49518
H      0.74435    0.59133   -2.41876
H      0.93437   -0.44902   -0.98165
H     -1.10000   -6.54577    6.55523
H     -2.85196   -6.74452    6.45794
H     -1.78361   -8.11749    6.12783
H     -2.67904   -5.16598   -0.01874
H     -0.98532   -4.69738    0.15672
H     -1.39495   -6.35644   -0.29328
H     -6.27992   -1.94094    0.44272
H     -6.82447   -3.09187    1.68396
H     -6.44411   -1.41276    2.11860
