28

C     -1.80979    2.08830   -4.28053
C      0.23264    1.02933    2.44527
C      0.10664    0.78526    1.06274
C     -1.85739    1.72447   -5.62098
C     -2.19639    1.63727    1.05323
C     -1.19916   -0.53470   -5.00288
C     -1.46394    1.17352   -3.26906
C     -0.86033    1.57856    3.08715
C     -2.04286    1.87288    2.40538
C     -1.07834    1.08824    0.40044
C     -1.16106   -0.13779   -3.66831
C     -1.54962    0.40527   -5.97021
C     -1.45059    1.69748   -1.87207
C     -2.25035    2.60406    4.50885
O     -1.69289    2.85492   -1.59403
O     -1.01113    1.88241    4.42512
O     -2.97489    2.37266    3.28843
O     -1.14485    0.73871   -0.95748
F     -0.81311   -1.08143   -2.77384
Cl    -1.60241   -0.07983   -7.64893
H     -2.04231    3.10406   -3.97807
H      1.14625    0.79360    2.98085
H      0.92823    0.35436    0.50026
H     -2.12751    2.44474   -6.38559
H     -3.11293    1.87197    0.52602
H     -0.95693   -1.55930   -5.26289
H     -2.83302    2.22685    5.35151
H     -2.04051    3.67800    4.60674
