44

C     -4.71482   -5.06322    2.47724
C     -3.54589   -5.53839    1.87638
C     -5.17641   -3.73736    0.53436
C     -2.95083   -2.55781   -3.10749
C     -5.54839   -4.14864    1.81970
C     -3.15729   -5.12180    0.59730
C     -4.00660   -4.21497   -0.05595
C     -3.26201   -3.90537   -3.48195
C     -3.24224   -2.52247   -1.74901
C     -2.54112   -1.41694   -3.93411
C     -0.06778   -3.04405   -4.13333
C      0.08738   -1.96011   -6.27922
C      1.05230   -2.13410   -3.62651
C      1.20721   -1.07771   -5.72788
C     -6.79521   -3.60561    2.47823
C     -1.88896   -5.61876   -0.05033
C     -3.22129   -4.51401   -4.84727
N     -3.68012   -4.61617   -2.43323
N     -1.66370   -1.32746   -4.87607
N     -3.66318   -3.75947   -1.36688
N     -0.84031   -2.39336   -5.21730
O      1.92595   -1.74933   -4.68856
Cl    -3.07352   -1.21438   -0.63897
H     -4.98084   -5.40934    3.47370
H     -2.91723   -6.24368    2.41476
H     -5.79894   -3.04221   -0.02303
H     -3.08631   -0.48809   -3.76462
H      0.36733   -3.95519   -4.55765
H     -0.72477   -3.33809   -3.31615
H     -0.48829   -1.42776   -7.03890
H      0.51496   -2.86160   -6.73122
H      0.62362   -1.24084   -3.14773
H      1.67088   -2.65968   -2.89321
H      1.93996   -0.84026   -6.50423
H      0.78013   -0.13985   -5.34338
H     -6.57980   -2.67390    3.01511
H     -7.57368   -3.38658    1.74146
H     -7.20434   -4.31561    3.20278
H     -2.11249   -6.27035   -0.90012
H     -1.29082   -4.78620   -0.43621
H     -1.27958   -6.17455    0.66673
H     -2.21546   -4.46176   -5.27367
H     -3.55329   -5.55347   -4.79719
H     -3.87709   -3.96534   -5.53169
