29

C      0.14615    1.83409    1.48880
C     -2.53607    2.52327    1.71257
C     -0.82076    0.91509    1.05186
C     -0.19999    3.07911    2.02219
C     -1.56422    3.42259    2.14479
C     -2.16047    1.29537    1.16665
C      1.04702   -0.87910    0.37618
C      0.51749   -2.27682    0.77980
C     -0.43004   -0.42067    0.46808
C      2.08770    3.72195    2.30258
C     -1.71589    4.86850    4.02066
N     -0.70067   -1.61697    1.32284
O      0.70144    4.02009    2.43925
O     -1.96404    4.64733    2.62297
Br    -3.56768    0.12024    0.56578
H      1.19001    1.56432    1.39358
H     -3.57895    2.80775    1.80281
H      1.67423   -0.45446    1.16261
H      1.54232   -0.77391   -0.59093
H      0.33153   -2.91175   -0.09869
H      1.09129   -2.84418    1.51961
H     -0.89974   -0.51480   -0.52269
H      2.61815    4.59898    2.67555
H      2.35720    3.55383    1.25282
H      2.36968    2.84528    2.89870
H     -2.12556    5.85494    4.24608
H     -0.64470    4.85406    4.24015
H     -2.23073    4.11086    4.62444
H     -1.58252   -2.08266    1.11692
