14

C      0.78167    0.11252    3.25450
C     -1.67242    3.19207    1.16682
C     -0.78323    2.26958    1.71951
C     -2.97846    3.31603    1.65214
C     -2.50963    1.55896    3.28250
C     -1.20585    1.45153    2.78077
C     -3.36357    2.49031    2.70388
N     -0.35712    0.50939    3.37308
O      1.86430   -0.35723    3.23908
F     -4.62529    2.59402    3.18965
H     -1.34475    3.82401    0.34635
H      0.22917    2.17966    1.33672
H     -3.68314    4.02772    1.23456
H     -2.84482    0.93183    4.10139
