24

C     -0.15416   -0.26272    1.26418
C      0.93772    0.14729    2.02642
C      6.33769    0.63780    6.45781
C     -0.61478   -1.56938    1.43161
C      7.17086    0.10793    7.40390
C      5.46035   -1.52436    6.63950
C      1.54148   -0.74104    2.92895
C      5.34713   -0.30314    6.01325
C      0.98544   -2.04235    3.01211
C      4.32446   -0.02297    5.01244
C      2.68451   -0.31246    3.72692
N     -0.05898   -2.43953    2.28505
N      3.38954   -0.96166    4.61409
N      4.21287    1.14567    4.41127
O      3.11633    0.96296    3.54696
O      1.51248   -2.95033    3.85727
S      6.76425   -1.54267    7.76916
H     -0.63548    0.40846    0.56070
H      1.33360    1.15325    1.93294
H      6.41160    1.65210    6.08207
H     -1.46413   -1.93990    0.86080
H      7.99971    0.58665    7.90946
H      4.83867   -2.39567    6.48203
H      0.97365   -3.75631    3.74139
