25

C     -2.17494   -1.65543   -1.87799
C     -2.91995   -2.09466   -0.78207
C     -3.84935    0.13367   -0.55114
C     -2.23758   -0.33127   -2.33091
C     -3.11095    0.53524   -1.65693
C     -3.74468   -1.18811   -0.11688
C      0.65668    0.46140   -0.54685
C      1.25460   -0.40787   -1.65186
C      0.30732    1.46056   -2.60715
C     -0.85612    1.25551   -3.57558
O     -0.16390    1.38977   -1.26701
O      1.33913    0.49743   -2.75875
O     -1.49694   -0.02252   -3.43931
F     -3.25492    1.81724   -2.07905
Br    -4.75756   -1.75702    1.40772
H     -1.52628   -2.34213   -2.41347
H     -2.85162   -3.12562   -0.45186
H     -4.49560    0.85269   -0.05944
H      0.01698   -0.09233    0.14464
H      1.43079    1.00160    0.01242
H      2.26197   -0.76648   -1.42888
H      0.60590   -1.25533   -1.89729
H      0.75010    2.44845   -2.80543
H     -0.46244    1.25658   -4.59408
H     -1.56691    2.07611   -3.46413
