25

C     -4.07994   -1.17144   -0.29568
C     -4.12376    0.13876   -0.78261
C     -2.33695   -1.67119   -1.92604
C     -2.36855   -0.35403   -2.40487
C     -3.18526   -2.05125   -0.89320
C     -3.29523    0.52768   -1.82555
C      0.45845    0.34645   -0.49105
C      1.11452   -0.49232   -1.58685
C      0.22705    1.40255   -2.54118
C     -0.88804    1.20380   -3.56656
O     -0.30644    1.31116   -1.22551
O      1.27094    0.44840   -2.65582
O     -1.53985   -0.07171   -3.45510
F     -3.12456   -3.33448   -0.44866
F     -3.39919    1.80409   -2.28563
H     -4.72341   -1.50303    0.51198
H     -4.80987    0.87010   -0.36673
H     -1.65366   -2.38563   -2.37223
H     -0.22746   -0.22388    0.14014
H      1.20207    0.85742    0.13309
H      2.10444   -0.86667   -1.31700
H      0.47622   -1.32553   -1.89858
H      0.67260    2.39522   -2.70473
H     -0.44460    1.19947   -4.56440
H     -1.59967    2.02724   -3.49202
