20

C      1.55512   -1.23336   -0.05301
C      0.51342   -0.53715    0.54830
C      1.61019   -0.85012    2.69374
C      2.66078   -1.72167    0.67257
C      2.65096   -1.56550    2.07751
C      0.57013   -0.33583    1.93169
C      3.75754   -2.29287   -0.13688
C      4.15103   -3.35690    2.68372
N      5.01627   -2.03371   -0.10658
O      5.35242   -1.11587    0.90213
O      3.57069   -2.07358    2.94351
Cl    -0.72121    0.54796    2.72666
H      1.54167   -1.37168   -1.13151
H     -0.31491   -0.14997   -0.03502
H      1.62842   -0.73797    3.77239
H      3.48856   -2.96478   -0.95138
H      4.40095   -3.77168    3.66259
H      5.05687   -3.26782    2.08150
H      3.43379   -4.01523    2.18176
H      6.30612   -0.99318    0.76539
