12

C     -1.36938   -1.33076    0.71378
C     -0.17922   -0.96119    0.07255
C     -0.82298   -3.54410    0.48259
C      0.36818   -3.14693   -0.16058
C     -1.20297   -4.98142    0.72331
N     -1.68278   -2.60822    0.91411
N      0.68830   -1.87954   -0.36380
O     -2.23195   -5.30663    1.27906
Br     1.64876   -4.43318   -0.80755
H     -2.07421   -0.58135    1.06775
H      0.08017    0.08239   -0.09233
H     -0.47901   -5.73089    0.35875
