39

C      4.22125    0.83131   -1.76042
C      3.09048    0.85980   -2.53686
C      4.76909    2.60019   -3.01033
C      0.65937    1.43625   -0.90863
C      0.04990   -0.84108   -1.04404
C     -0.24697    1.17683    0.30302
C     -0.98977   -0.11745   -0.14151
C      5.57030    3.75147   -3.54137
C      0.57652    1.03881    1.58959
C     -1.52591   -0.99362    0.98192
C      5.63382   -1.14949   -1.07987
C      4.51951   -0.16813   -0.67735
C      1.88332   -0.03818   -2.47054
N      5.15622    1.81529   -2.04352
N      1.16814    0.09890   -1.20953
O     -2.15712    0.23932   -0.91553
S      3.19242    2.18750   -3.66593
H      0.08593    1.87024   -1.75574
H      1.48228    2.12441   -0.69751
H      0.40902   -1.77872   -0.60346
H     -0.43865   -1.09123   -1.99997
H     -0.98749    1.97249    0.43128
H      5.80703    3.61791   -4.60224
H      5.02972    4.69817   -3.43745
H      6.50359    3.81546   -2.97854
H      1.32629    0.24752    1.49846
H     -0.05860    0.81846    2.45241
H      1.10514    1.97524    1.79775
H     -2.22735   -0.43045    1.60471
H     -0.71665   -1.37008    1.61169
H     -2.06058   -1.84825    0.55606
H      5.33917   -1.73766   -1.95590
H      5.85473   -1.84393   -0.26202
H      6.55151   -0.60930   -1.33022
H      4.82689    0.38076    0.22049
H      3.60208   -0.70489   -0.42326
H      1.22364    0.16233   -3.33708
H      2.20294   -1.08310   -2.56367
H     -1.87992    0.84515   -1.62167
