25

C     -3.94337    0.12032   -5.45219
C     -2.79376    0.53691   -4.77042
C     -4.21461   -1.23262   -5.65409
C     -1.88812   -0.41188   -4.27561
C     -3.30893   -2.16771   -5.15744
C     -2.16222   -1.77564   -4.47789
C      3.09512    1.67340   -2.91310
C      2.46254    2.97032   -2.39445
C      0.90037    1.27408   -2.62502
C     -0.41771    1.23404   -3.37500
O      1.97876    0.99249   -3.49138
O      1.09979    2.59872   -2.12424
O     -0.74101   -0.13647   -3.59932
F     -3.53507   -3.48813   -5.33091
F     -1.30933   -2.70563   -4.00893
H     -4.63526    0.86704   -5.83004
H     -2.60963    1.59511   -4.62899
H     -5.09971   -1.57490   -6.18007
H      3.84523    1.82236   -3.69142
H      3.52578    1.07860   -2.09564
H      2.92706    3.33663   -1.47418
H      2.47416    3.76325   -3.15064
H      0.88969    0.56265   -1.78422
H     -0.30777    1.77475   -4.32181
H     -1.18626    1.71762   -2.76080
