60

C      5.71169   -5.93706   -1.24895
C      9.18477   -4.96624   -0.33766
C      8.98247   -3.70141    0.22552
C      8.09460   -5.67918   -0.83045
C      7.69939   -3.15655    0.28780
C      4.81474   -2.61764    1.06835
C      4.36750   -3.21421   -1.22616
C      3.56393   -2.01892    1.16143
C      3.11847   -2.60139   -1.13769
C      1.40121   -0.05646   -1.97798
C     -1.27919   -0.62941   -2.45481
C      6.80050   -5.13104   -0.76662
C      5.23790   -3.23045   -0.12663
C      6.58276   -3.84871   -0.20769
C      2.69557   -1.99328    0.05550
C      0.69120   -0.86454   -1.07918
C     -0.65966   -1.16625   -1.32486
C      0.77790    0.47941   -3.10303
C     -0.58396    0.20227   -3.33640
C      1.35354   -1.36429    0.15255
C     -0.59956    0.18808    2.54939
C     -1.38530   -2.06525   -0.36062
C     -1.62348   -1.40597    1.00559
C     -2.04680   -2.44464    2.05101
C      0.48606    1.27955    4.44715
C      1.77830    0.72324   -5.23428
C     -1.42544    2.12107   -4.44699
N      4.86078   -6.62437   -1.65135
N      0.84282   -1.26531    1.34086
N     -0.42267   -0.64202    1.42944
N      0.55736    0.55426    3.18777
O     -1.71638    0.60209    2.87077
O      1.50412    1.29738   -3.94482
O     -1.24183    0.69269   -4.44171
H     10.18209   -5.39314   -0.38995
H      9.82672   -3.13473    0.60889
H      8.22765   -6.66782   -1.25882
H      7.55676   -2.16344    0.70366
H      5.46562   -2.63693    1.93842
H      4.66819   -3.67018   -2.16388
H      3.24154   -1.57264    2.09579
H      2.46339   -2.60525   -2.00262
H      2.44860    0.17750   -1.81248
H     -2.32378   -0.83994   -2.66899
H     -2.35533   -2.36606   -0.76597
H     -0.80663   -2.98554   -0.21594
H     -2.40553   -0.65125    0.90716
H     -1.24102   -3.16577    2.22421
H     -2.92917   -2.99356    1.70338
H     -2.29880   -1.95650    2.99462
H      1.46582    1.71480    4.66150
H      0.18632    0.63819    5.28669
H     -0.24691    2.08219    4.35554
H      2.35746    1.46921   -5.78192
H      0.85257    0.49970   -5.77338
H      2.37172   -0.19275   -5.12423
H     -1.96800    2.35089   -5.36574
H     -0.46499    2.64407   -4.43713
H     -2.02288    2.42769   -3.58047
H      1.36042   -0.03421    3.00253
