60

C      8.63937   -2.32450   -2.16419
C      9.92757   -5.11475   -0.06861
C      8.92754   -5.21725    0.90477
C      9.80506   -4.16495   -1.07979
C      7.81350   -4.37826    0.85929
C      5.71581   -2.33887   -1.33795
C      6.01942   -1.93251    1.02080
C      4.58003   -1.53034   -1.32703
C      4.88531   -1.12962    1.03311
C      3.37802    1.27589   -2.20245
C      0.69241    1.16077   -2.92115
C      8.68301   -3.31755   -1.12506
C      6.45800   -2.54893   -0.16685
C      7.65944   -3.41687   -0.15228
C      4.14829   -0.90777   -0.14439
C      2.47016    0.57603   -1.39535
C      1.11083    0.52440   -1.75147
C      2.94979    1.93492   -3.35324
C      1.59360    1.85906   -3.72940
C      2.93254   -0.05450   -0.13298
C      1.10446    1.78774    2.15178
C      0.16138   -0.24336   -0.87167
C     -0.06504    0.42913    0.48998
C     -0.75444   -0.52864    1.46908
C      2.21838    2.64900    4.14769
C      3.72926    4.04758   -4.07771
C      1.61962    1.98430   -6.10069
N      8.64694   -1.53456   -3.02111
N      2.35176    0.11285    1.01528
N      1.21554    0.95374    1.02686
N      2.25729    1.93799    2.87865
O      0.05656    2.38748    2.40542
O      3.87328    2.61658   -4.11793
O      1.11568    2.49447   -4.85264
H     10.79519   -5.76739   -0.03810
H      9.01118   -5.95801    1.69541
H     10.57623   -4.05947   -1.83663
H      7.03047   -4.48319    1.60455
H      6.01368   -2.82096   -2.26352
H      6.59266   -2.06453    1.93461
H      4.01894   -1.39315   -2.24537
H      4.55998   -0.66037    1.95506
H      4.42976    1.33790   -1.93915
H     -0.34831    1.12381   -3.23236
H     -0.81097   -0.35896   -1.35858
H      0.55296   -1.25474   -0.70788
H     -0.68663    1.31546    0.35206
H     -0.10859   -1.38609    1.68643
H     -1.68897   -0.90391    1.03699
H     -0.99240   -0.01471    2.40256
H      3.24215    2.87464    4.45753
H      1.72199    2.07186    4.93913
H      1.67233    3.58453    4.01800
H      4.52481    4.44971   -4.70770
H      3.85279    4.41272   -3.05125
H      2.75323    4.35768   -4.46393
H      1.14170    2.57754   -6.88232
H      1.33979    0.93041   -6.21772
H      2.70646    2.08680   -6.16262
H      2.96004    1.22339    2.73444
