52

C     -2.22748    1.78675    1.75497
C     -2.07015    1.09875    0.53416
C     -6.21768    1.55666    6.12145
C     -3.16645    1.37143    2.70097
C     -5.68776    1.23807    4.86655
C     -4.71839   -1.87040   -2.36585
C     -6.69244   -1.38214   -1.05707
C     -2.84169   -0.03010    0.24629
C     -6.61302    0.55819    7.01290
C     -5.32296   -1.33331   -3.51008
C     -7.30812   -0.83887   -2.18623
C     -5.91067   -1.11435    5.39456
C     -3.97256    0.24934    2.43146
C     -5.52818   -0.10848    4.48644
C     -4.98477   -0.47591    3.16988
C     -5.38919   -1.89928   -1.13946
C     -3.77869   -0.44238    1.19923
C     -6.46918   -0.78504    6.63040
C     -6.60946   -0.82461   -3.39072
C     -5.35872   -1.56375    2.38179
C     -6.41905   -2.65891    2.57285
C     -8.08393   -5.28052    7.73037
C     -9.00805   -4.13345    8.08833
C     -7.50985   -3.94619    8.15667
C     -4.73328   -2.48391    0.09858
C     -6.82421   -3.10161    7.11876
N     -4.63205   -1.53100    1.19416
O     -6.23365   -3.45995    3.52573
O     -7.34064   -2.64283    1.71185
O     -6.90848   -1.72814    7.53122
F     -7.21152   -0.29243   -4.49915
H     -1.60413    2.65397    1.96319
H     -1.34010    1.44816   -0.19254
H     -6.34354    2.60103    6.40145
H     -3.25750    1.90047    3.64499
H     -5.44187    2.03099    4.16747
H     -3.70744   -2.26770   -2.43711
H     -7.20965   -1.44271   -0.10064
H     -2.72233   -0.55770   -0.69509
H     -7.04304    0.79353    7.98289
H     -4.81248   -1.30008   -4.46818
H     -8.31647   -0.43683   -2.14373
H     -5.79009   -2.14320    5.07970
H     -8.00625   -6.11498    8.42221
H     -7.99587   -5.55204    6.68197
H     -9.53365   -3.63517    7.27864
H     -9.56134   -4.18958    9.02199
H     -7.07181   -3.89776    9.15146
H     -5.31716   -3.33228    0.45676
H     -3.72696   -2.84320   -0.14891
H     -7.29531   -3.23618    6.13833
H     -5.76928   -3.38954    7.01643
