29

C      1.76788   -1.23508   -0.22129
C      1.61674   -2.41399    0.51824
C      1.91156   -0.01457    0.44617
C      1.58595   -2.37526    1.91297
C      1.89994    0.03547    1.84234
C      1.32175   -0.53980    6.09921
C      1.98802   -1.78481    5.98938
C      1.71748   -1.14631    2.57031
C      1.10676   -0.13773    4.79293
C      0.41162    1.09333    4.29618
C     -1.34150    2.04728    2.89723
C     -1.35010   -0.38906    3.31099
N      2.19105   -2.12779    4.71804
N      1.65143   -1.11184    3.98925
N     -0.72171    0.90331    3.55359
O      0.86916    2.20795    4.56238
H      1.78480   -1.26929   -1.30717
H      1.51538   -3.36803    0.00787
H      2.05339    0.90328   -0.11796
H      1.46639   -3.27865    2.50103
H      2.05356    0.97838    2.35641
H      1.02436   -0.00614    6.99115
H      2.33769   -2.43817    6.77925
H     -1.38456    1.87628    1.81446
H     -0.75087    2.93793    3.10529
H     -2.36211    2.19728    3.26916
H     -2.43227   -0.29351    3.45260
H     -0.98130   -1.13673    4.01171
H     -1.16040   -0.73736    2.28840
