31

C      1.22582   -0.83981   -2.60960
C      1.33968    0.13814   -1.62315
C      2.23607   -1.80186   -2.71117
C      3.39972   -0.88477   -0.95993
C      2.44866    0.12691   -0.76637
C      4.40940    0.61549    1.79297
C      1.60541    1.06412    1.52254
C      5.73385    0.98160    2.43663
C      0.02602   -0.30914    2.76851
C      4.56133    2.67616    0.38321
C      2.56904    1.19316    0.30716
N      3.30661   -1.83031   -1.90724
N      0.81304   -0.04017    1.56941
N      3.93506    1.42147    0.78878
O      3.78040   -0.38651    2.14614
O      1.54135    1.99373    2.32323
H      0.37908   -0.85736   -3.28998
H      0.57230    0.90174   -1.51276
H      2.18377   -2.58030   -3.47109
H      4.27254   -0.94177   -0.31790
H      5.70480    1.98620    2.86940
H      5.92734    0.25588    3.22608
H      6.55620    0.94669    1.71452
H      0.66576   -0.60538    3.60816
H     -0.68814   -1.10736    2.55313
H     -0.51686    0.59428    3.04930
H      4.43025    2.81352   -0.69419
H      5.63175    2.65594    0.58203
H      4.11582    3.53057    0.90776
H      2.25241    2.13838   -0.14311
H      1.16543   -0.84537    1.06581
