31

C      2.16689   -2.76186   -0.79223
C      2.00081   -1.64499    0.03258
C      2.76467   -2.60008   -2.04256
C      3.01570   -0.35307   -1.71123
C      2.43563   -0.39996   -0.43183
C      3.80146    2.83947    0.49216
C      1.55405    0.89126    1.65846
C      5.18867    3.41902    0.70023
C      0.25127    2.29624    3.18699
C      4.68884    0.58105    1.11761
C      2.32180    0.91211    0.32308
N      3.18784   -1.41317   -2.50684
N      0.86278    2.03960    1.88911
N      3.65813    1.48245    0.59791
O      2.83834    3.57683    0.23108
O      1.61090   -0.04365    2.46265
H      1.84081   -3.74575   -0.46643
H      1.55838   -1.73483    1.01729
H      2.91061   -3.45344   -2.70316
H      3.36242    0.60177   -2.10827
H      5.96502    2.84147    0.19161
H      5.18091    4.44027    0.31943
H      5.43521    3.45136    1.76715
H     -0.45622    3.12226    3.08837
H      0.99972    2.55081    3.94756
H     -0.28044    1.40281    3.51809
H      5.38640    1.12435    1.75410
H      5.24390    0.09216    0.30976
H      4.20848   -0.18665    1.72760
H      1.83284    1.63208   -0.33478
H      1.09621    2.83105    1.29331
