31

C      3.45226   -2.93881   -0.51049
C      3.40925   -2.03325    0.54783
C      3.00839   -2.53087   -1.77317
C      2.48696   -0.44868   -0.99514
C      2.92179   -0.74183    0.30332
C      5.26311    0.44605    1.98344
C      2.37469   -0.11359    2.72888
C      6.63131    1.08471    1.81734
C      2.28965    0.38709    5.12255
C      4.33342    2.17376    0.44875
C      2.89291    0.35238    1.35017
N      2.52667   -1.30654   -2.02430
N      2.60021    0.76631    3.74905
N      4.17619    1.09287    1.42352
O      5.12186   -0.59526    2.62413
O      1.69434   -1.12647    2.84570
H      3.81858   -3.95103   -0.36325
H      3.73893   -2.31090    1.54102
H      3.03466   -3.21896   -2.61719
H      2.07313    0.53608   -1.21893
H      6.66078    2.10061    2.22419
H      7.34997    0.46559    2.35360
H      6.92066    1.13737    0.76295
H      2.28991    1.28228    5.74929
H      3.01530   -0.33477    5.51660
H      1.29941   -0.06929    5.14952
H      4.46388    1.79006   -0.57104
H      5.18827    2.79989    0.70025
H      3.44181    2.80600    0.46856
H      2.15702    1.09552    1.02475
H      3.34930    1.43074    3.60481
