26

C      1.92461   -1.12073    0.03563
C      1.25436   -2.16182    0.68886
C      2.39630   -0.03050    0.77428
C      1.05222   -2.11000    2.07103
C      2.19653    0.01698    2.15782
C      1.52113   -1.01888    2.81752
C      0.07292    2.04922    4.33975
C     -0.21108    3.25419    3.45818
C     -0.16851   -0.39149    4.59272
C      1.24836   -0.92563    4.30574
N     -0.45908    0.86112    3.91349
O      0.72172    2.14446    5.38154
O      1.29531   -2.19889    4.95957
H      2.08331   -1.16239   -1.03892
H      0.89115   -3.01438    0.12020
H      2.92488    0.77785    0.27515
H      0.53676   -2.91840    2.58279
H      2.57105    0.86223    2.73148
H     -0.80047    3.97534    4.03133
H      0.73749    3.73419    3.20414
H     -0.74814    3.00912    2.53763
H     -0.27146   -0.24047    5.66873
H     -0.89833   -1.14046    4.27314
H      1.96514   -0.23243    4.76272
H     -0.81041    0.81072    2.96696
H      2.19219   -2.55394    4.85563
