39

C     -3.18349   -0.98993    2.72673
C     -4.56510   -0.79650    2.87767
C     -2.62716   -2.27220    2.78581
C     -5.42451   -1.88198    3.09144
C     -4.48022   -9.77954    1.98873
C     -3.47927   -3.35534    2.99296
C     -4.35090   -8.63654    1.12236
C     -4.84793   -3.14386    3.13518
C     -4.59818  -10.89795    1.19995
C     -4.40054   -9.11140   -0.19388
C     -3.07818   -4.78920    3.07288
C     -4.20784   -7.24370    1.52646
C     -4.75493  -12.33619    1.57892
C     -4.33807   -8.37263   -1.49181
C     -4.70563  -11.34938   -1.28198
C     -4.22741   -6.98638    3.05078
N     -4.54117  -10.47564   -0.13035
N     -4.20346   -5.56828    3.35255
O     -1.95078   -5.23659    2.95147
O     -4.05947   -6.29592    0.75984
O     -6.22637   -4.75708    4.77310
O     -6.55118   -5.08670    2.29953
S     -5.69079   -4.69370    3.41318
H     -2.53979   -0.13048    2.56202
H     -4.97632    0.20776    2.82792
H     -1.56090   -2.44258    2.67173
H     -6.49425   -1.74139    3.21201
H     -4.47741   -9.78692    3.07089
H     -5.66960  -12.77831    1.16578
H     -3.90948  -12.95054    1.24468
H     -4.81022  -12.41792    2.66680
H     -3.43722   -8.63524   -2.06120
H     -5.20667   -8.59441   -2.12319
H     -4.31229   -7.30272   -1.29161
H     -5.76244  -11.45598   -1.55254
H     -4.16431  -10.94310   -2.13715
H     -4.30003  -12.33711   -1.05831
H     -3.34359   -7.44163    3.50640
H     -5.10941   -7.43662    3.51232
