16

C      3.57884   -1.78282    4.16731
C      1.19788   -0.40824    4.56278
C      2.87774   -1.31621    3.04766
C      1.67374   -0.62211    3.26954
C      1.91490   -0.88425    5.66259
C      3.11795   -1.57892    5.46462
C      3.49695   -1.61061    1.70211
O      4.54611   -2.21295    1.60742
O      0.97246   -0.15504    2.17846
O      2.85152   -1.18574    0.59426
Cl     1.27044   -0.58686    7.25075
Br     4.13957   -2.25207    6.92670
H      4.50606   -2.31639    3.98896
H      0.26795    0.12955    4.72815
H      0.15659    0.29227    2.45580
H      2.02587   -0.71770    0.82673
