34

C     -1.33952   -4.61898    1.88674
C     -0.92733   -4.08067    3.11216
C     -0.50810   -5.47474    1.15323
C      0.33604   -4.38880    3.63607
C     -1.39776   -7.36365   -2.73601
C     -1.07216   -8.94486   -5.08672
C      0.75327   -5.78525    1.67127
C     -0.19292   -8.09286   -2.94077
C     -2.37736   -7.44386   -3.69325
C     -2.22074   -8.21889   -4.84808
C      1.14220   -5.23636    2.89565
C     -0.06125   -8.86507   -4.11060
C      1.85663   -6.64698    1.15293
C      0.87363   -8.02872   -1.94584
C     -4.18857   -7.15320   -4.98635
N      2.94308   -6.75257    1.86932
N      0.75298   -7.31996   -0.87455
N      1.81163   -7.33714   -0.02105
O      3.75583   -4.71702    3.24103
O      2.76815   -6.70735    4.44902
O     -3.62053   -6.85493   -3.70038
O     -3.34946   -8.14160   -5.61822
S      2.80206   -5.82504    3.28305
Cl     1.40168   -9.79000   -4.42917
H     -2.32218   -4.36942    1.49636
H     -1.59081   -3.41919    3.66227
H     -0.82751   -5.88960    0.20775
H      0.67144   -3.98058    4.58471
H     -1.52136   -6.76769   -1.84025
H     -0.94908   -9.54865   -5.97833
H      1.78173   -8.60510   -2.14222
H     -5.19102   -7.56580   -4.85393
H     -4.19866   -6.24561   -5.60172
H      2.64624   -7.88538   -0.23899
