41

C      3.51793   -1.39155   -7.27132
C      2.70822   -2.28025   -6.55384
C      3.52821   -0.03727   -6.92767
C      1.91539   -1.81613   -5.50293
C      2.73005    0.42323   -5.87446
C      1.91574   -0.45828   -5.15345
C      1.53824   -0.41205   -2.63783
C     -1.02751    1.16887   -0.43428
C      0.76269   -1.38138    0.32094
C     -0.05836    1.22988   -1.61979
C      1.50924   -0.16159   -0.22432
C     -2.87870   -0.11048    0.74649
C     -1.62097   -0.22555   -0.15086
C     -0.71896   -1.17850    0.65994
C      1.05543    0.05148   -4.02233
N     -2.45581    0.18504    2.13341
N      1.00409    0.22858   -1.54424
O      2.35993   -1.31903   -2.50934
O      0.04083    0.47363    2.72531
O     -1.08682   -1.73253    3.28629
S     -0.93397   -0.58229    2.39642
H      4.13580   -1.75330   -8.08926
H      2.69934   -3.33635   -6.81147
H      4.15462    0.66089   -7.47717
H      1.30389   -2.51447   -4.93775
H      2.74450    1.47923   -5.61160
H     -0.55080    1.56837    0.46401
H     -1.84903    1.85531   -0.67271
H      0.83194   -2.17048   -0.43293
H      1.28195   -1.75956    1.20881
H     -0.63008    1.06940   -2.53512
H      0.36322    2.24416   -1.67544
H      1.44511    0.68773    0.45746
H      2.56148   -0.42388   -0.33715
H     -3.55684    0.67872    0.41450
H     -3.43516   -1.05297    0.74829
H     -1.88978   -0.70793   -1.09810
H     -1.20464   -2.15851    0.69634
H      1.01270    1.14388   -4.05450
H      0.02324   -0.30054   -4.15165
H     -2.30748    1.18281    2.28143
