46

C      0.22658   -3.42723   -4.57088
C     -0.87104   -2.56472   -4.64537
C      1.30121   -3.10452   -3.73405
C     -0.89008   -1.39062   -3.88510
C      1.28093   -1.92948   -2.97894
C      0.18228   -1.05743   -3.04522
C     -0.20455    1.32464    0.00112
C     -1.09927   -1.02082   -0.28121
C     -0.55400   -1.53382    1.04643
C     -0.00413   -0.03947   -0.69632
C      2.14736    4.09852    0.23757
C      1.40596   -2.46886    3.01549
C      3.22521   -1.71354    1.46151
C      1.71709   -0.00522    2.52578
C      0.14213    0.20445   -2.21598
C      0.82410    3.40530    0.50222
C      1.79414   -1.43235    1.94782
N      0.89112   -1.66559    0.79000
O     -1.20050    1.65798    0.61788
O      1.21133   -0.62950   -0.22083
O      0.87345    2.11421   -0.15916
H      0.24555   -4.34105   -5.15943
H     -1.71079   -2.80407   -5.29316
H      2.15761   -3.77124   -3.66889
H     -1.74966   -0.72580   -3.94496
H      2.10650   -1.69058   -2.31656
H     -1.15809   -1.82900   -1.01184
H     -2.07190   -0.53996   -0.17800
H     -0.79541   -0.82667    1.85029
H     -0.95287   -2.51624    1.30912
H      2.98056    3.51150    0.63481
H      2.30607    4.24291   -0.83517
H      2.15311    5.07998    0.72264
H      0.42553   -2.25945    3.45404
H      1.38762   -3.47546    2.58611
H      2.14166   -2.45398    3.82528
H      3.51011   -1.00959    0.67593
H      3.29445   -2.72777    1.05679
H      3.93574   -1.61552    2.28918
H      2.02328    0.72659    1.77502
H      0.71081    0.25020    2.87190
H      2.38995    0.08254    3.38514
H      1.05489    0.78995   -2.35881
H     -0.69484    0.83391   -2.53812
H     -0.02571    3.96911    0.10672
H      0.65124    3.24074    1.56948
