29

C      2.14062   -6.21505    0.53440
C      2.75542   -6.42192    1.77058
C      0.86044   -5.65956    0.47634
C      2.09062   -6.07291    2.94933
C      0.16987   -5.29639    1.64157
C      0.81691   -5.51523    2.86996
C     -1.70843   -2.55643    2.84943
C     -2.80865   -1.98856    4.78908
C     -2.33983   -0.73167    4.03940
C     -1.97711   -4.85818    0.27103
C     -1.21794   -4.67851    1.58681
N     -2.58655   -3.01605    3.75189
N     -1.10475   -3.22291    1.88922
O     -1.47287   -1.25941    2.97192
Cl     0.01952   -5.09156    4.39117
H      2.65113   -6.49040   -0.38331
H      3.74839   -6.85797    1.82601
H      0.39280   -5.52006   -0.49251
H      2.55307   -6.23355    3.91764
H     -2.20205   -2.20131    5.67407
H     -3.86204   -1.93888    5.06651
H     -3.15453   -0.19593    3.55021
H     -1.73584   -0.05094    4.63570
H     -1.48238   -4.34823   -0.55976
H     -2.05805   -5.92005    0.02708
H     -2.98531   -4.44667    0.36484
H     -1.81625   -5.11725    2.38707
H     -2.63396   -4.00387    3.97384
H     -0.47728   -2.67588    1.30491
