36

C     -2.10288   -4.54738    4.85880
C     -0.73860   -4.34657    5.10044
C     -2.85079   -3.54190    4.23901
C      0.22236    2.61617   -1.35656
C     -0.86667    2.78339   -0.49202
C     -0.12809   -3.14912    4.71747
C     -2.23602   -2.34392    3.85722
C      0.82401    1.36342   -1.49056
C     -1.36079    1.70899    0.25449
C     -0.86928   -2.13351    4.09217
C      0.32103    0.29432   -0.74965
C     -0.75817    0.46190    0.12601
C      0.55941   -1.97922   -0.01557
C     -0.27074   -1.59076    1.18929
C     -0.18638   -0.86764    3.62376
C      0.62919   -1.09836    2.33377
N      0.85031   -1.02497   -0.88306
N      0.98784   -3.23204   -0.14135
O     -1.25623   -0.63105    0.80202
H     -2.58050   -5.47420    5.16397
H     -0.15580   -5.11610    5.59955
H     -3.91299   -3.68506    4.06018
H      0.60238    3.45783   -1.92620
H     -1.33259    3.75890   -0.39309
H      0.92872   -2.99349    4.92830
H     -2.82606   -1.56270    3.38251
H      1.66739    1.22219   -2.16242
H     -2.20535    1.82263    0.92691
H     -0.84306   -2.46037    1.52151
H     -0.92260   -0.07850    3.44884
H      0.50379   -0.49712    4.38823
H      1.14044   -0.17789    2.03128
H      1.40012   -1.85512    2.51820
H      1.42441   -1.22209   -1.69969
H      1.58360   -3.54394   -0.90224
H      0.72257   -3.92599    0.54950
