21   

C        0.9864207629   -5.3994528491   -1.6626502750
C        0.6617335561   -4.1891035093   -0.9517963990
C        1.7445803855   -5.0190291565   -2.7332688095
C        1.2475867850   -3.1610821226   -1.6450271024
C       -0.6435997678   -0.6642241617    1.3218787351
C        0.5962538784   -1.1149995879   -0.3966658245
C        0.3720731225    0.3576408570   -0.3744605362
C        1.2538846687   -1.7559778712   -1.4015432342
C       -1.0315594937    1.8329290765    1.0960913816
N       -0.0837787652   -1.6691664418    0.6828060309
N       -0.3754686521    0.5846346267    0.7508653433
O        0.7397229174    1.2034114839   -1.1801557835
O        1.9149391757   -3.6578201045   -2.7397850958
H        0.6926096940   -6.4105977645   -1.4063176178
H        0.0712076061   -4.1063912166   -0.0470854197
H        2.1556621643   -5.6933810886   -3.4756871181
H       -1.2574606688   -0.7981641438    2.2059402544
H        1.7613741120   -1.1435077945   -2.1372524933
H       -0.6382049851    2.2145146287    2.0435401364
H       -2.1123144617    1.6844614752    1.1845549825
H       -0.8540572035    2.5866437896    0.3217636355
21   

C        0.8548069666   -5.3668111754   -1.6848600848
C        0.6466730927   -4.1630905890   -0.9208987035
C        1.6250036029   -5.0089282652   -2.7548228277
C        1.3064519106   -3.1616079288   -1.5854559118
C       -0.4753762693   -0.6619004051    1.4184292990
C        0.8021873572   -1.1112425212   -0.2722271065
C        0.4293068800    0.3303956923   -0.3545583956
C        1.4309071601   -1.7736747619   -1.2847011590
C       -1.1383561345    1.7477505028    0.9976788503
N        0.1764052411   -1.6514408214    0.8459334552
N       -0.3285605840    0.5656441363    0.7624439018
O        0.6899184054    1.1414372095   -1.2342954807
O        1.9110908731   -3.6679441441   -2.7116546682
H        0.4798776053   -6.3590229238   -1.4626141132
H        0.0811303571   -4.0660351313   -0.0017114583
H        1.9644041623   -5.6849138369   -3.5312146029
H       -1.0756576075   -0.7933804343    2.3121379816
H        1.9391655107   -1.1744727769   -2.0306653115
H       -0.8001386700    2.2600420839    1.9038140991
H       -2.1922801555    1.4736095509    1.1073957592
H       -1.0543419873    2.4446096933    0.1571361707
21   

C        0.7107113408   -5.2828783089   -1.6965361414
C        0.6168302695   -4.0947132011   -0.8868007864
C        1.5098930974   -4.9581824265   -2.7560384542
C        1.3663218904   -3.1354582557   -1.5167937143
C       -0.3197690134   -0.6481634546    1.5082756425
C        1.0058002891   -1.0853992945   -0.1486029560
C        0.4940349058    0.3063717656   -0.3267242887
C        1.6121981255   -1.7785435713   -1.1590769205
C       -1.2241613031    1.6419560345    0.9172917290
N        0.4224576791   -1.6086131090    0.9998594493
N       -0.2837651254    0.5443510790    0.7760851765
O        0.6642070727    1.0704844066   -1.2684102562
O        1.9205736684   -3.6525204074   -2.6636301253
H        0.2449953536   -6.2435585077   -1.5103707802
H        0.0651519210   -3.9782058147    0.0386102021
H        1.7833670653   -5.6327441781   -3.5592355627
H       -0.9122160901   -0.7784136161    2.4073803020
H        2.1411229804   -1.1987774512   -1.9058938771
H       -0.9526707957    2.2599221904    1.7788351115
H       -2.2411192989    1.2599234414    1.0508176739
H       -1.2140516558    2.2746668333    0.0235464655
21   

C        0.5139653478   -5.1776320854   -1.6689677035
C        0.5027609416   -3.9966422794   -0.8433151641
C        1.3612757399   -4.9076937743   -2.7065901571
C        1.3441150094   -3.0970365077   -1.4433762583
C       -0.3113477347   -0.5945107935    1.5358920029
C        1.0756868698   -1.0277041158   -0.0717171257
C        0.4170229356    0.2822662609   -0.3704041882
C        1.6839460228   -1.7716044945   -1.0516367383
C       -1.4563525825    1.5171329802    0.7406956098
N        0.5297863080   -1.5131084331    1.1109031973
N       -0.3884953336    0.5331101419    0.7095207447
O        0.5022715663    0.9689260675   -1.3807097118
O        1.8795673521   -3.6433010502   -2.5852676803
H       -0.0353879697   -6.0978059811   -1.5078572883
H       -0.0558181451   -3.8435127516    0.0726779602
H        1.5938703574   -5.5917434993   -3.5146321175
H       -0.9000309371   -0.7126512724    2.4391390078
H        2.2516205712   -1.2256463500   -1.7952295943
H       -1.2123372129    2.3118653266    1.4525306063
H       -2.4014114574    1.0485002411    1.0327032403
H       -1.5942321085    1.9674592263   -0.2479779444
21   

C        0.3675900895   -5.0436141584   -1.6802177480
C        0.4451898248   -3.8820585752   -0.8306656197
C        1.2728933792   -4.8413575795   -2.6841968728
C        1.3912458149   -3.0616969828   -1.3850152902
C       -0.1874327478   -0.5598033350    1.5868295846
C        1.2376625466   -0.9847000124    0.0090996324
C        0.4558159913    0.2319351040   -0.3854946546
C        1.8321126564   -1.7846952275   -0.9451805925
C       -1.5214059530    1.3715797646    0.6435184645
N        0.7323079747   -1.4289097693    1.2253350154
N       -0.3665105781    0.4914136062    0.6796052054
O        0.4662265292    0.8358314667   -1.4506521672
O        1.9107580563   -3.6380298459   -2.5190324263
H       -0.2758503575   -5.9069386134   -1.5572114746
H       -0.1245001716   -3.6870332141    0.0705039102
H        1.4632529831   -5.5301782855   -3.4992125997
H       -0.7639320923   -0.6634720029    2.4996659894
H        2.4630338317   -1.2813663848   -1.6671875129
H       -1.3529218848    2.2366789843    1.2924114055
H       -2.4190905528    0.8406168599    0.9755424261
H       -1.6997881978    1.7319210098   -0.3751168602
21   

C        0.2149964103   -4.8803479368   -1.7077098958
C        0.3639675358   -3.7385154981   -0.8409246453
C        1.1962293346   -4.7704135965   -2.6534831385
C        1.4236587846   -3.0222743123   -1.3284251283
C       -0.0742412833   -0.5086046382    1.6365992712
C        1.3705463739   -0.9368443984    0.0757612392
C        0.4795648465    0.1738478845   -0.4017708267
C        1.9564145187   -1.8024124756   -0.8388931430
C       -1.5780746434    1.2202424695    0.5656996506
N        0.9113440904   -1.3245716881    1.3288663697
N       -0.3502647666    0.4489826383    0.6534625800
O        0.4190266038    0.6816916872   -1.5142529316
O        1.9490895312   -3.6445471403   -2.4346273508
H       -0.5232857605   -5.6703612326   -1.6349156323
H       -0.2332159034   -3.4866430511    0.0277613972
H        1.3601362739   -5.4699551588   -3.4651024095
H       -0.6318457550   -0.5882040130    2.5634883846
H        2.6865861909   -1.3640902937   -1.5071389472
H       -1.4818874257    2.1438773294    1.1449052304
H       -2.4238609149    0.6404523814    0.9483934535
H       -1.7937259383    1.4849690595   -0.4748420130
21   

C        1.4873632514   -4.8673099484   -0.8794803926
C        0.6135237481   -3.7309620820   -0.7297553750
C        2.0520846235   -4.7520022313   -2.1193059414
C        0.7162964637   -3.0122420054   -1.8901488739
C       -1.5954361966   -0.5202574684    0.5141690551
C       -0.6030344879   -0.9354071219   -1.3703107843
C        0.1360089879    0.1789943531   -0.6868959029
C        0.0701854652   -1.7958744620   -2.2280776442
C       -0.0997784497    1.2203079425    1.5781772071
N       -1.6288232150   -1.3325954882   -0.5206479849
N       -0.5822997422    0.4433565035    0.4497193919
O        1.2007294255    0.6958876435   -1.0005399782
O        1.5884138938   -3.6279046102   -2.7546586227
H        1.6691179776   -5.6573969836   -0.1603087615
H       -0.0084626346   -3.4842458130    0.1228471975
H        2.7671213012   -5.4465715624   -2.5450366997
H       -2.2829044968   -0.6067707462    1.3486039790
H        0.4547292239   -1.3540158317   -3.1384154505
H       -0.0721806879    0.6055506654    2.4833031221
H       -0.7523573972    2.0828096383    1.7455767590
H        0.9139366887    1.5882059579    1.3876575967
21   

C        1.4114954936   -5.0280906377   -1.0095703828
C        0.5755096749   -3.8727233967   -0.8016889414
C        2.0586448338   -4.8205255160   -2.1955454484
C        0.7801961687   -3.0503278531   -1.8773973169
C       -1.5135644507   -0.5691325149    0.5994937313
C       -0.4997111440   -0.9820044112   -1.2722678490
C        0.1227949196    0.2391478024   -0.6657930227
C        0.2101529669   -1.7775071887   -2.1482907439
C       -0.1934607513    1.3699529293    1.5460783888
N       -1.4743197102   -1.4350644343   -0.3907072864
N       -0.6056750204    0.4882736310    0.4679106056
O        1.1180474182    0.8516450318   -1.0314401200
O        1.6831940038   -3.6197079903   -2.7425438539
H        1.5141714669   -5.8910231447   -0.3620519158
H       -0.0884255165   -3.6831393143    0.0337207046
H        2.7701198001   -5.5039199026   -2.6446944892
H       -2.1805049574   -0.6795599295    1.4476450800
H        0.6789317776   -1.2711324943   -2.9828776338
H       -0.0874688272    0.8094919999    2.4802302464
H       -0.9322844243    2.1657359291    1.6826465332
H        0.7722384829    1.8329733537    1.3174355307
21   

C        1.3523547728   -5.1654355824   -1.1477052237
C        0.5697664413   -3.9895875530   -0.8621950924
C        2.0491213596   -4.8897668877   -2.2904827451
C        0.8517395550   -3.0869288566   -1.8536782967
C       -1.4210476576   -0.6044933502    0.7010804888
C       -0.3656152898   -1.0257486745   -1.1444385405
C        0.1265429533    0.2864747633   -0.6203466616
C        0.3619542210   -1.7641407228   -2.0437778789
C       -0.3062432989    1.5146840048    1.5194495326
N       -1.2958857672   -1.5191574235   -0.2368145553
N       -0.6221441801    0.5277091622    0.5018114309
O        1.0453620522    0.9804187684   -1.0371292637
O        1.7551978405   -3.6266107495   -2.7377473683
H        1.3879310117   -6.0861422709   -0.5771791294
H       -0.1104310627   -3.8418655501   -0.0315439683
H        2.7387370745   -5.5689568333   -2.7784243547
H       -2.0757018144   -0.7287821037    1.5568469847
H        0.8720300746   -1.2144326486   -2.8253787560
H       -0.1573876041    1.0304965644    2.4897094561
H       -1.1183853417    2.2439825212    1.5991539861
H        0.6138504238    2.0506680942    1.2637472170
21   

C        1.2990475008   -5.2835576755   -1.2869526374
C        0.5812549211   -4.0903522452   -0.9165020992
C        2.0315164491   -4.9579719147   -2.3933730840
C        0.9329913072   -3.1275586062   -1.8264823296
C       -1.3211342369   -0.6354627160    0.7992752282
C       -0.2117997234   -1.0708853665   -1.0099081261
C        0.1433734913    0.3136965119   -0.5769861681
C        0.5281145290   -1.7653216447   -1.9262473973
C       -0.4334022369    1.6387583276    1.4708301251
N       -1.1025529885   -1.5916547957   -0.0781003138
N       -0.6312421232    0.5520003935    0.5280044059
O        0.9815170480    1.0721984871   -1.0479327435
O        1.8207769381   -3.6470663820   -2.7384643318
H        1.2697709106   -6.2479885572   -0.7935245679
H       -0.1033393431   -3.9729291292   -0.0847194117
H        2.6884243198   -5.6355490486   -2.9265770714
H       -1.9696006070   -0.7654430203    1.6588945975
H        1.0597448209   -1.1853583145   -2.6709878899
H       -0.2419315059    1.2452155771    2.4740480420
H       -1.3203155774    2.2795462772    1.4958568707
H        0.4256426629    2.2512352682    1.1773546901
21   

C        1.2380748367   -5.3674749273   -1.4160009218
C        0.6021406968   -4.1600443623   -0.9538259061
C        1.9897370435   -5.0099361349   -2.4991793609
C        1.0163809081   -3.1569433341   -1.7917405895
C       -1.1846040222   -0.6522019513    0.9156938514
C       -0.0276395550   -1.1017953994   -0.8594618085
C        0.1912724025    0.3351383300   -0.5257167381
C        0.7064479559   -1.7654612311   -1.7974803978
C       -0.5356522329    1.7454608098    1.4172995922
N       -0.8755219036   -1.6395968208    0.1025122285
N       -0.6038192949    0.5719279729    0.5648126813
O        0.9413744119    1.1416326675   -1.0610319133
O        1.8673398900   -3.6657260382   -2.7442602611
H        1.1443552322   -6.3617944533   -0.9952920020
H       -0.0715742279   -4.0617056445   -0.1108536572
H        2.5988995145   -5.6883930346   -3.0853109913
H       -1.8251287271   -0.7829462739    1.7811280219
H        1.2440239387   -1.1668083789   -2.5230555093
H       -0.3154783669    1.4560499862    2.4496343247
H       -1.4864733460    2.2867122438    1.3871450863
H        0.2563511446    2.4214131737    1.0781788225
21   

C        1.1766946231   -5.4045642962   -1.5224855429
C        0.6279248311   -4.1929363811   -0.9688732394
C        1.9335733740   -5.0235270296   -2.5937984652
C        1.0934483572   -3.1636478955   -1.7463287572
C       -1.0420265161   -0.6661879290    1.0495925400
C        0.1563502290   -1.1150645550   -0.6984757139
C        0.2236640411    0.3550584044   -0.4688024552
C        0.8749749127   -1.7572185426   -1.6600501781
C       -0.6661386265    1.8223551057    1.3640786038
N       -0.6364670190   -1.6694425239    0.3008498479
N       -0.5854435037    0.5823509182    0.6131422181
O        0.8686325670    1.1991365326   -1.0780514647
O        1.8952919322   -3.6607524441   -2.7465930319
H        1.0244905191   -6.4169159010   -1.1669238234
H       -0.0247611927   -4.1102084863   -0.1079274447
H        2.4881007964   -5.6985383803   -3.2355010582
H       -1.6686744385   -0.8012071988    1.9244741450
H        1.4028725757   -1.1447404504   -2.3812424881
H       -0.4238203335    1.6477663648    2.4170301942
H       -1.6740759079    2.2422507127    1.2882230506
H        0.0437775945    2.5569068619    0.9695884663
21   

C        1.0841370704   -5.4207244209   -1.6015070140
C        0.6438698856   -4.2067347093   -0.9627743143
C        1.8393176197   -5.0340026786   -2.6719129565
C        1.1653278767   -3.1702927764   -1.6940472391
C       -0.8619061482   -0.6730894485    1.1899357217
C        0.3671646459   -1.1233858263   -0.5374079831
C        0.2901810185    0.3585149198   -0.4129051289
C        1.0559224634   -1.7584923616   -1.5241054217
C       -0.7862286236    1.8642639901    1.2893839682
N       -0.3686643175   -1.6815822592    0.5033079241
N       -0.5203061455    0.5791673686    0.6688400523
O        0.8211950495    1.2179736058   -1.1049617017
O        1.9006300846   -3.6654845223   -2.7451598702
H        0.8648231311   -6.4382703880   -1.2999338875
H        0.0227793053   -4.1276727724   -0.0784568012
H        2.3237536428   -5.7090560709   -3.3680050325
H       -1.4748353715   -0.8065309502    2.0747110360
H        1.5716001258   -1.1424757205   -2.2511263672
H       -0.5300820096    1.8341402817    2.3530218931
H       -1.8434032798    2.1247230180    1.1769568123
H       -0.1858841929    2.6490730772    0.8173183418
