17   
Generated by ForceBalance from scan.xyz: Frame 1 of 24
C       -0.2721585569    0.2953572585    1.1530200558
C        2.2759364650    0.1966612871   -0.4844006405
C       -1.2333994015   -0.8701551104    2.9687334958
C       -0.3115755017    0.5140017224   -0.3472425236
C        0.9095484910   -0.0395129798   -1.0888966835
O        0.4904414870    0.8628739947    1.9119558400
O       -1.1983149029   -0.6019262166    1.5490172386
F        0.8909223654    0.5305795254   -2.3549903916
F        0.7288275021   -1.3994498893   -1.2779291698
H        3.0285025245   -0.1690977007   -1.1867844377
H        2.4297026274    1.2620401065   -0.3041114971
H        2.3739781938   -0.3319488691    0.4640332211
H       -2.0306711013   -1.5998710531    3.1052398254
H       -1.4469342222    0.0469472499    3.5221724093
H       -0.2753780645   -1.2769965958    3.2999177147
H       -1.2055241775    0.0714460601   -0.7876345452
H       -0.3244855102    1.5939752963   -0.5126237296
17   
Generated by ForceBalance from scan.xyz: Frame 2 of 24
C       -0.4074827315    0.4962099661    1.0699008168
C        2.0924955857   -0.0858869088   -0.2785182855
C       -0.9089749478   -0.9243302567    2.8918002301
C       -0.4043552002    0.6263212234   -0.4402073124
C        0.8231942607   -0.0234349262   -1.1010260607
O        0.0063436045    1.3464092880    1.8338823037
O       -0.9055002128   -0.6952183913    1.4651132937
F        1.0901578817    0.6912919403   -2.2599815086
F        0.4909655363   -1.3015422699   -1.5101521831
H        2.8969562080   -0.4786236681   -0.9040543743
H        2.3594723515    0.9101880649    0.0801413113
H        1.9526832546   -0.7470556071    0.5793804295
H       -1.3283869693   -1.9210767083    3.0237687928
H       -1.5243255117   -0.1746781526    3.3940523710
H        0.1089127389   -0.8769794987    3.2857271297
H       -1.3003288035    0.1801039526   -0.8748786713
H       -0.3764227933    1.6918520277   -0.6690748832
17   
Generated by ForceBalance from scan.xyz: Frame 3 of 24
C       -0.4506110645    0.5344627321    1.0157149388
C        2.0199690203   -0.1970617735   -0.2307722270
C       -0.8365481481   -0.8514435017    2.8925224985
C       -0.4523796534    0.6011157715   -0.4984568093
C        0.8374427112    0.0485209853   -1.1430785239
O       -0.1176524040    1.4458418897    1.7472675331
O       -0.8467300851   -0.6803560690    1.4577333224
F        1.2290957161    0.9404636886   -2.1293985958
F        0.5327378373   -1.1308974567   -1.8020199744
H        2.8654086597   -0.5325265422   -0.8351623235
H        2.2884993333    0.7230085713    0.2924536538
H        1.7742762721   -0.9696346449    0.5010179731
H       -1.1713380151   -1.8737901131    3.0646996178
H       -1.5147088892   -0.1366543139    3.3636435004
H        0.1722240996   -0.7024660948    3.2847093318
H       -1.2995120294    0.0472182044   -0.9050331771
H       -0.5377650347    1.6520349828   -0.7739341686
17   
Generated by ForceBalance from scan.xyz: Frame 4 of 24
C       -0.9722292420   -0.6264017059    0.4670652518
C        1.6388085106   -0.9799592321   -0.6422671045
C       -0.8264603993   -0.7167002311    2.8256779288
C       -0.6880374224    0.2144852067   -0.7615024409
C        0.7454019026    0.0392097614   -1.3142184086
O       -1.4310752161   -1.7513902770    0.4458120906
O       -0.6288567380    0.0252175701    1.6014412059
F        1.3754400388    1.2739998189   -1.2816783306
F        0.6454685883   -0.2820378047   -2.6591863031
H        2.6017357047   -0.9954259063   -1.1570974016
H        1.7954063838   -0.7075555974    0.4038341831
H        1.1825091479   -1.9705220124   -0.6940392633
H       -0.4980573707   -0.0516648100    3.6237063941
H       -0.2306159769   -1.6323385227    2.8138952631
H       -1.8807805942   -0.9751464731    2.9454145281
H       -1.3861163752   -0.0950553977   -1.5390032413
H       -0.8367729160    1.2711704047   -0.5378491580
17   
Generated by ForceBalance from scan.xyz: Frame 5 of 24
C       -1.0219914966   -0.6047087245    0.4444987738
C        1.5581428431   -1.0414755450   -0.7574149401
C       -0.8733897789   -0.5842584518    2.8042919018
C       -0.7494716706    0.1797264165   -0.8232634770
C        0.7180701539    0.0976012683   -1.2894556926
O       -1.4649153550   -1.7361606000    0.4737299821
O       -0.6869963460    0.1020934466    1.5465484533
F        1.3424238285    1.2986301771   -0.9941656078
F        0.7060136127    0.0295630975   -2.6757237776
H        2.5394530641   -1.0081200635   -1.2353441481
H        1.6826734685   -0.9417250720    0.3229817267
H        1.0773954130   -1.9971496487   -0.9765480778
H       -0.5498214701    0.1205118436    3.5694695987
H       -0.2679465514   -1.4932078245    2.8334160312
H       -1.9246150186   -0.8479238290    2.9393607115
H       -1.3715259229   -0.2521298795   -1.6072417002
H       -1.0028611660    1.2322340320   -0.6905684019
17   
Generated by ForceBalance from scan.xyz: Frame 6 of 24
C       -0.8226378099   -0.6721578102    0.5856855417
C        1.6333256707   -1.1732089045   -0.9960822075
C       -1.0007957617   -0.5058339283    2.9359666972
C       -0.6299051011    0.0962066752   -0.7069860601
C        0.8172247366    0.0792323863   -1.2192868541
O       -0.9395090586   -1.8809031092    0.6536874797
O       -0.8388071359    0.1476488710    1.6571973320
F        1.4876826768    1.1651410031   -0.6795750461
F        0.7571293962    0.3354109620   -2.5832935370
H        2.5883595759   -1.0616606842   -1.5140835555
H        1.8164866682   -1.3220186469    0.0695287460
H        1.1022939794   -2.0446564874   -1.3830035180
H       -0.9906488033    0.2957688048    3.6735846019
H       -0.1789644017   -1.2037353846    3.1111702327
H       -1.9477653376   -1.0492698672    2.9658453271
H       -1.2441161247   -0.3957691658   -1.4633627708
H       -0.9403766284    1.1363119852   -0.6031369101
17   
Generated by ForceBalance from scan.xyz: Frame 7 of 24
C       -0.5857763061   -0.6419639337    0.7270248183
C        1.6553287445   -1.2280619688   -1.3321527992
C       -1.1718094218   -0.4119464030    3.0033121700
C       -0.4984010552    0.0684945595   -0.6106999713
C        0.9014884532    0.0767432065   -1.2267269452
O       -0.3113092463   -1.8127449740    0.9108657395
O       -1.0351449371    0.1843069727    1.6936716293
F        1.6712251528    0.9994272041   -0.5337427021
F        0.7555395474    0.6091178749   -2.5027838021
H        2.5887420175   -1.0420721021   -1.8685705810
H        1.8691485323   -1.6287168406   -0.3418202057
H        1.0599910937   -1.9605624779   -1.8809646896
H       -1.5464169793    0.3844353534    3.6453738903
H       -0.2029379931   -0.7711273291    3.3569630377
H       -1.8757803637   -1.2463139291    2.9680905987
H       -1.1564731156   -0.4643755457   -1.3030203883
H       -0.8370099079    1.1013326870   -0.5266372414
17   
Generated by ForceBalance from scan.xyz: Frame 8 of 24
C       -0.5296808453   -0.6351416144    0.8226477584
C        1.6496205704   -1.2531361213   -1.4071855787
C       -1.1945173647   -0.3210564802    3.0660160884
C       -0.4623208096    0.0029223641   -0.5530626633
C        0.9572509029    0.0581584838   -1.1172085421
O       -0.1545652250   -1.7619757327    1.0866914866
O       -1.0814322239    0.2023577452    1.7232887611
F        1.7374337840    0.8063886099   -0.2484947775
F        0.8879836392    0.7979799397   -2.2898527088
H        2.6436280866   -1.0429653159   -1.8088610636
H        1.7309096666   -1.8450262686   -0.4955606395
H        1.0755357210   -1.8183709299   -2.1451352297
H       -1.6580758981    0.4749133224    3.6477123764
H       -0.2051618541   -0.5632819232    3.4598524670
H       -1.8162068182   -1.2190891483    3.0715273187
H       -1.0791921436   -0.5903966722   -1.2337799750
H       -0.8533853325    1.0203496403   -0.5193975868
17   
Generated by ForceBalance from scan.xyz: Frame 9 of 24
C       -0.5761995941   -0.6566271002    0.8412185002
C        1.6266892196   -1.2209933706   -1.4883239441
C       -1.1643231336   -0.2114373959    3.0820884957
C       -0.5037723288   -0.0881491722   -0.5642124439
C        0.9472066260    0.0517470388   -1.0364906659
O       -0.2191001011   -1.7783873953    1.1486778886
O       -1.0885106330    0.2362860502    1.7097857251
F        1.6912390714    0.6124890817   -0.0083568373
F        0.9647526007    0.9731642184   -2.0690206590
H        2.6651674320   -1.0010682243   -1.7464458218
H        1.5916330161   -1.9592628509   -0.6852537132
H        1.1146671748   -1.6220745157   -2.3663793549
H       -1.5957003816    0.6227582853    3.6342528070
H       -0.1656583095   -0.4483897964    3.4550770679
H       -1.7989667713   -1.0971693076    3.1574004742
H       -1.0368724830   -0.7574507390   -1.2433460399
H       -0.9692486049    0.8978455934   -0.5941557445
17   
Generated by ForceBalance from scan.xyz: Frame 10 of 24
C       -0.6299972679   -0.7482642580    0.8643710576
C        1.6682096323   -1.2361879685   -1.5662760819
C       -1.1788036706   -0.1283989199    3.0724863144
C       -0.4993375609   -0.2678804096   -0.5688457007
C        0.9761074480   -0.0437147193   -0.9442619941
O       -0.3506134711   -1.8724790030    1.2352826101
O       -1.0851322983    0.2264165076    1.6746457317
F        1.6837992767    0.3222791278    0.1914000030
F        1.0470178751    1.0340970608   -1.8063564371
H        2.7203128719   -0.9976051525   -1.7378522201
H        1.5908150301   -2.0905283597   -0.8896960718
H        1.1944223192   -1.4873535181   -2.5184059379
H       -1.5512804228    0.7648774048    3.5727374413
H       -0.1942752491   -0.4053859788    3.4553829587
H       -1.8684948558   -0.9647523996    3.2061483917
H       -0.9329668487   -1.0179504629   -1.2322225700
H       -1.0312920470    0.6761062432   -0.6945556289
17   
Generated by ForceBalance from scan.xyz: Frame 11 of 24
C       -0.6775481606   -0.7984782551    0.9028871844
C        1.6802666022   -1.0854255470   -1.7239730875
C       -1.1418793188   -0.0273807134    3.0830331719
C       -0.5062943282   -0.3913637567   -0.5489591867
C        0.9641409515   -0.0537291506   -0.8803536742
O       -0.5059518025   -1.9266627378    1.3217070252
O       -1.0354085678    0.2502417019    1.6691937746
F        1.6814519163    0.1170931485    0.2932487581
F        1.0011244970    1.1686275757   -1.5270175833
H        2.7143486238   -0.7714531381   -1.8829364560
H        1.6664269779   -2.0483652085   -1.2074603726
H        1.1812168659   -1.1893306416   -2.6906630476
H       -1.4235629877    0.9192124536    3.5430470396
H       -0.1817100471   -0.3756378281    3.4697315719
H       -1.9036968740   -0.7889751146    3.2639562217
H       -0.8417097617   -1.2179328490   -1.1759846389
H       -1.1120021548    0.4908802859   -0.7599058292
17   
Generated by ForceBalance from scan.xyz: Frame 12 of 24
C       -0.7706311198   -0.8648113012    0.8932050551
C        1.6702421536   -0.9844482300   -1.8630074438
C       -1.2020217243    0.0591835790    3.0209612337
C       -0.5162075755   -0.5464234605   -0.5690466928
C        0.9494243962   -0.1364920577   -0.8384400617
O       -0.7373793676   -1.9835142179    1.3657644607
O       -1.0338711975    0.2525104742    1.5994441872
F        1.6735329095   -0.1634664160    0.3424841270
F        0.9711314167    1.1848035377   -1.2529016377
H        2.6866564368   -0.6070228791   -1.9955818718
H        1.7089394917   -2.0208202333   -1.5189608529
H        1.1422852505   -0.9431847538   -2.8191432332
H       -1.3874399157    1.0526197587    3.4280879296
H       -0.2951315963   -0.3721034760    3.4503528614
H       -2.0473168824   -0.6044543174    3.2166329068
H       -0.7573321874   -1.4410632044   -1.1435341717
H       -1.1595036753    0.2729423368   -0.8926076672
17   
Generated by ForceBalance from scan.xyz: Frame 13 of 24
C       -0.7875688215   -0.9059629887    0.9532722274
C        1.6691173984   -0.8718289449   -1.9317459644
C       -1.1853220412    0.1620301662    3.0197916996
C       -0.4714894255   -0.6864383606   -0.5157470275
C        0.9783030562   -0.2218845829   -0.7529715732
O       -0.8715779562   -1.9974727641    1.4791931220
O       -0.9626442855    0.2652439545    1.5966242029
F        1.7342740258   -0.4387524672    0.3867359398
F        0.9811837688    1.1520719664   -0.9345092091
H        2.6633025064   -0.4359606828   -2.0528350767
H        1.7625929859   -1.9465293283   -1.7591315545
H        1.0891871329   -0.7037780092   -2.8429448314
H       -1.2803428572    1.1883780172    3.3727874567
H       -0.3377776638   -0.3345699304    3.4971741937
H       -2.0978247844   -0.4037256754    3.2212987398
H       -0.6365852569   -1.6382109428   -1.0215189204
H       -1.1383954503    0.0655361108   -0.9411492322
17   
Generated by ForceBalance from scan.xyz: Frame 14 of 24
C       -0.7842604121   -0.9443435615    1.0055272338
C        1.6298055482   -0.7516257861   -2.0010159428
C       -1.1989049141    0.2450310759    3.0009735622
C       -0.4251477711   -0.8194478092   -0.4654361169
C        1.0023030694   -0.3073962734   -0.6969404179
O       -0.9328551712   -2.0021321253    1.5835712691
O       -0.9231433603    0.2648464844    1.5836228532
F        1.8110501471   -0.7079202269    0.3534915431
F        0.9984360238    1.0761273515   -0.6514404354
H        2.6115194624   -0.2839986171   -2.1042603335
H        1.7445696300   -1.8378540946   -2.0086865222
H        0.9993757893   -0.4506014123   -2.8416273342
H       -1.2503848666    1.2914908385    3.2997877436
H       -0.3965897817   -0.2706017870    3.5331123341
H       -2.1470425000   -0.2613836136    3.1960626803
H       -0.5269994737   -1.8135271188   -0.9021582907
H       -1.1122921755   -0.1353920945   -0.9684759430
17   
Generated by ForceBalance from scan.xyz: Frame 15 of 24
C       -0.7208988907   -0.9648842917    1.0902358612
C        1.5569964711   -0.6400359355   -2.0603176183
C       -1.2778364527    0.3199238774    2.9891336290
C       -0.3609352801   -0.9156846528   -0.3852938531
C        1.0640592266   -0.4212838476   -0.6448764233
O       -0.7779016467   -1.9856060546    1.7458995947
O       -0.9803613484    0.2652795364    1.5770518084
F        1.9281726967   -1.0485182824    0.2348304907
F        1.1420583606    0.9279802445   -0.3493210991
H        2.5671946074   -0.2347298254   -2.1520779949
H        1.5762568470   -1.7075184186   -2.2910400868
H        0.9012716176   -0.1294260472   -2.7697842062
H       -1.4320797316    1.3753786119    3.2111244283
H       -0.4406899165   -0.0787722934    3.5661945010
H       -2.1776403132   -0.2588673240    3.2102508841
H       -0.4564629048   -1.9293543543   -0.7763668905
H       -1.0477837635   -0.2546813064   -0.9190652101
17   
Generated by ForceBalance from scan.xyz: Frame 16 of 24
C       -0.0777135425   -0.3784533831    0.9149846998
C        0.9535565172    0.7127724942   -2.6935740344
C        0.0004480753   -2.3203006538    2.2530804108
C       -0.2413701130    0.1491056159   -0.5000847112
C        1.0653671087    0.1397675204   -1.2957194708
O        0.1288411425    0.3169075950    1.8886285325
O       -0.2007745270   -1.7218858705    0.9542885489
F        1.5399255915   -1.1576559003   -1.3803135314
F        2.0250821137    0.8459995933   -0.5961811430
H        1.9311933555    0.6610147555   -3.1780442775
H        0.2327253293    0.1383129134   -3.2800618083
H        0.6319126081    1.7558182132   -2.6477787551
H       -0.1028114657   -3.3935127851    2.0960838344
H       -0.7504180560   -1.9573736626    2.9588408017
H        0.9967263165   -2.0782228671    2.6293487850
H       -0.9731347221   -0.4533669760   -1.0423735002
H       -0.5937850137    1.1795977113   -0.4340320761
17   
Generated by ForceBalance from scan.xyz: Frame 17 of 24
C       -0.1987664802   -0.3477651335    0.8805966881
C        1.0076621878    0.8196311585   -2.6302620704
C        0.1113573355   -2.2109180428    2.2946755857
C       -0.3261661181    0.1149284019   -0.5613135752
C        0.9797737185    0.0055943111   -1.3528029844
O       -0.2181809101    0.3969511250    1.8399149374
O       -0.0729307984   -1.6871413787    0.9615985312
F        1.2191159829   -1.3192816641   -1.6656780284
F        2.0333487263    0.4018130498   -0.5463935356
H        1.9503305654    0.6349630595   -3.1503375752
H        0.1783549909    0.5286870668   -3.2798653620
H        0.9273416231    1.8839294354   -2.3983471280
H        0.2199717244   -3.2877213332    2.1692360299
H       -0.7556845896   -1.9780977897    2.9172081663
H        1.0076283099   -1.7814721162    2.7474799142
H       -1.0845214481   -0.4752652304   -1.0813794702
H       -0.6383145491    1.1595866767   -0.5365866581
17   
Generated by ForceBalance from scan.xyz: Frame 18 of 24
C       -0.2486506095   -0.3517403323    0.8299697636
C        1.0542011194    0.9037916696   -2.5554660500
C        0.1526366553   -2.1233913944    2.3366507890
C       -0.3980343503    0.0239196630   -0.6342891791
C        0.9152665924   -0.0920776447   -1.4226068230
O       -0.2877271559    0.4440616048    1.7465827199
O       -0.0717650321   -1.6791564312    0.9810422034
F        1.0188814652   -1.3694268259   -1.9451568601
F        1.9903432153    0.0580344182   -0.5642308751
H        1.9792613335    0.7017082815   -3.1000638658
H        0.2075600684    0.8118146850   -3.2407064756
H        1.0843988378    1.9201052187   -2.1562150530
H        0.2987778640   -3.2008078898    2.2671509838
H       -0.7124364033   -1.8885727678    2.9610989904
H        1.0398482517   -1.6381469653    2.7491852876
H       -1.1379187253   -0.6164263173   -1.1190933912
H       -0.7461710031    1.0568962708   -0.6619178013
17   
Generated by ForceBalance from scan.xyz: Frame 19 of 24
C       -0.2444321957   -0.3814227593    0.7758569491
C        1.0983727990    0.9869381401   -2.4547060925
C        0.1735235625   -2.0531293097    2.3883918216
C       -0.4367583431   -0.1082230519   -0.7052791838
C        0.8845443591   -0.1680440193   -1.4995985840
O       -0.2196004750    0.4785523615    1.6332334933
O       -0.1030353287   -1.7001768604    1.0154970819
F        0.9202132067   -1.3501875112   -2.2204066203
F        1.9593666172   -0.2258383659   -0.6294883425
H        2.0312423955    0.8348742131   -3.0022245737
H        0.2692324780    1.0421634116   -3.1648475874
H        1.1543914444    1.9235061599   -1.8949639560
H        0.2789668847   -3.1375189980    2.3926663018
H       -0.6503444939   -1.7408174370    3.0341507746
H        1.0967078176   -1.5731619606    2.7203561639
H       -1.1231495699   -0.8366612756   -1.1399630578
H       -0.8696004641    0.8885668346   -0.7923634032
17   
Generated by ForceBalance from scan.xyz: Frame 20 of 24
C       -0.2357725845   -0.4057155132    0.7081103496
C        1.1132913411    1.0730361746   -2.3325774491
C        0.1403732641   -1.9623416450    2.4404642408
C       -0.4763703108   -0.2402933860   -0.7812888769
C        0.8415816480   -0.2155609600   -1.5890621313
O       -0.1123349953    0.5180862597    1.4878417951
O       -0.1721308745   -1.7066733124    1.0535480568
F        0.8241487266   -1.2658960975   -2.4924144994
F        1.9133878512   -0.4750201844   -0.7506512273
H        2.0593759160    0.9886050370   -2.8719291840
H        0.3078276426    1.2694565750   -3.0447407229
H        1.1722044260    1.8998001469   -1.6204980974
H        0.1636818705   -3.0473688805    2.5363513830
H       -0.6265928129   -1.5316932325    3.0881432225
H        1.1115741141   -1.5303651782    2.6914066365
H       -1.0844773624   -1.0649791320   -1.1550729027
H       -1.0130438121    0.6974592495   -0.9271649785
17   
Generated by ForceBalance from scan.xyz: Frame 21 of 24
C       -0.2009470016   -0.4491909757    0.6371751199
C        1.1207067513    1.1347341911   -2.1744202288
C        0.1119343078   -1.8757658166    2.4886938294
C       -0.4934813919   -0.3870831646   -0.8504001340
C        0.8038857773   -0.2551453629   -1.6747402957
O        0.0368766147    0.5233414583    1.3271954691
O       -0.2299699947   -1.7159062710    1.0939381899
F        0.7307462027   -1.1346745158   -2.7412404887
F        1.8749060098   -0.7083165010   -0.9162946669
H        2.0766266206    1.1234075913   -2.7027300771
H        0.3351489876    1.4744234539   -2.8539670592
H        1.1802183724    1.8181283763   -1.3237890615
H        0.0471066274   -2.9461583975    2.6811778885
H       -0.5911199513   -1.3247679807    3.1173444741
H        1.1247646551   -1.5098402492    2.6702485472
H       -1.0040758230   -1.2972076647   -1.1669834916
H       -1.1374889437    0.4729263475   -1.0393037709
17   
Generated by ForceBalance from scan.xyz: Frame 22 of 24
C       -0.2065346292    0.1741249298    1.2547502964
C        2.3446635554    0.4778277648   -0.8659323150
C       -1.4533372850   -1.0472283393    2.8407879324
C       -0.1433804288    0.6469773989   -0.1858827401
C        0.9525898166   -0.0988630909   -0.9613726308
O        0.6577789704    0.3898700964    2.0833141637
O       -1.3356928293   -0.5167990896    1.5013851384
F        0.5574640348   -0.1747079823   -2.2862093516
F        0.9803456424   -1.4172980982   -0.5235958919
H        3.0427835459   -0.1674957391   -1.4038056775
H        2.3633149227    1.4775921605   -1.3066593956
H        2.6356659995    0.5429860749    0.1847894974
H       -2.4093425106   -1.5692599787    2.8615045929
H       -1.4372021968   -0.2365238836    3.5725565792
H       -0.6307462332   -1.7360237813    3.0445090175
H       -1.0967362715    0.4616515435   -0.6819907973
H        0.0671811580    1.7183267054   -0.1972461970
17   
Generated by ForceBalance from scan.xyz: Frame 23 of 24
C       -0.2149834110    0.1300191964    1.2119389669
C        2.3275344081    0.4440995838   -0.7407942790
C       -1.4292759720   -0.9697422212    2.9103918321
C       -0.2169150817    0.5471531374   -0.2475830531
C        0.9406157953   -0.0825742978   -1.0251710937
O        0.6867485166    0.3593412350    1.9959734628
O       -1.3481625043   -0.5214613771    1.5385134562
F        0.6568762421    0.0731449405   -2.3731313889
F        0.9166608838   -1.4520555072   -0.7992829534
H        3.0493784143   -0.1116803875   -1.3436775705
H        2.3805688022    1.5037206611   -1.0022595764
H        2.5568034020    0.3273540411    0.3191821247
H       -2.3965267803   -1.4637008673    2.9956113058
H       -1.3661144901   -0.1184156942    3.5917223435
H       -0.6172458220   -1.6673694792    3.1260647978
H       -1.1500959242    0.2454626938   -0.7245477196
H       -0.1258316071    1.6352198015   -0.2990750921
17   
Generated by ForceBalance from scan.xyz: Frame 24 of 24
C       -0.2015963865    0.1485031108    1.1673759134
C        2.3332171553    0.3871402575   -0.6681963329
C       -1.3464839337   -0.9159647938    2.9371777717
C       -0.2463375874    0.4931069516   -0.3099403765
C        0.9488787883   -0.0396654463   -1.0999859527
O        0.6874757010    0.4732396785    1.9316215179
O       -1.2927380664   -0.5507248546    1.5396481599
F        0.7553440800    0.3577047921   -2.4160160517
F        0.8801145391   -1.4243846725   -1.1071583913
H        3.0595646429   -0.0423023565   -1.3622295318
H        2.4105674601    1.4764012952   -0.6932643682
H        2.5382192985    0.0463023207    0.3461059520
H       -2.2823624518   -1.4605158145    3.0572501444
H       -1.3343468253   -0.0211824685    3.5634347319
H       -0.4943097762   -1.5488724135    3.1939609533
H       -1.1559726094    0.1033100404   -0.7678904539
H       -0.2457029613    1.5833015740   -0.3972804001
