27

C      0.82417    0.94271   -0.02277
C      0.23244   -0.11341   -0.62850
C      1.39837    2.10656   -0.71308
C      0.21679   -0.89758    1.68625
C     -0.38232   -1.15067    0.28629
C     -2.55290    0.23483    0.63157
C      3.90509    4.00213   -0.68178
C     -1.92982   -1.10850    0.23714
C      2.43497    4.22831   -0.35638
O      1.48029    2.24753   -1.92160
O      0.09188   -0.24020   -1.97264
O      1.82529    3.03249    0.18924
S      0.80165    0.85306    1.76570
H     -0.51288   -1.06530    2.48149
H      1.07597   -1.55020    1.85834
H     -0.07319   -2.15108   -0.04921
H     -2.29357    0.51530    1.65600
H     -3.64397    0.18089    0.56139
H     -2.21129    1.03991   -0.02543
H      4.44797    3.65671    0.20331
H      4.01520    3.26228   -1.47815
H      4.35650    4.94189   -1.01913
H     -2.26142   -1.37717   -0.77504
H     -2.30323   -1.90305    0.89429
H      1.87591    4.53868   -1.24195
H      2.31103    4.97490    0.43101
H     -0.32593   -1.09582   -2.16140
