27

C      0.44283    1.46219    0.28089
C      0.58205    0.18415    0.72806
C      1.47239    2.49060    0.22376
C     -1.66770    0.08836   -0.16644
C     -0.69139   -0.62626    0.78476
C     -1.78674   -2.92826    0.59497
C      3.82834    3.73709    1.92309
C     -0.49572   -2.11413    0.45795
C      3.80854    2.95266    0.62015
O      1.30024    3.65142   -0.09996
O      1.70470   -0.40915    1.17590
O      2.71135    1.99599    0.59314
S     -1.23693    1.88279   -0.16783
H     -1.54892   -0.29704   -1.18485
H     -2.70954   -0.02382    0.13574
H     -1.06680   -0.54041    1.81734
H     -2.19764   -2.84863    1.60815
H     -1.60152   -3.98799    0.39297
H     -2.55804   -2.58972   -0.10489
H      2.93054    4.35210    2.01738
H      3.89205    3.06372    2.78351
H      4.70188    4.39805    1.93881
H     -0.10186   -2.20454   -0.56204
H      0.27216   -2.51906    1.12423
H      4.70294    2.33665    0.50503
H      3.70990    3.61219   -0.24351
H      2.42694    0.25443    1.11908
