32

C      2.14118   -2.83526   -3.62770
C      0.40509   -1.39277   -4.46997
C      2.61802   -3.04347   -4.92820
C      0.86349   -1.58878   -5.76529
C      1.03418   -2.01475   -3.37284
C      1.97473   -2.42125   -6.00932
C     -1.33542   -2.63376   -0.32591
C      0.49037   -1.84432   -1.97091
C      3.56560   -3.41753   -9.15130
C      3.47018   -3.38838   -7.63540
C     -0.81557   -2.62827   -1.75611
N     -0.56264   -4.06997   -2.21258
O      2.44036   -4.05398   -9.74234
O      2.34637   -2.54588   -7.30417
H      2.67633   -3.29688   -2.79904
H     -0.44133   -0.72838   -4.30601
H      3.48994   -3.66848   -5.07964
H      0.38848   -1.09706   -6.60881
H     -0.58852   -3.03046    0.37027
H     -1.55328   -1.60613   -0.02494
H     -2.26007   -3.21035   -0.22259
H      0.26403   -0.79489   -1.75673
H      1.23033   -2.16167   -1.22651
H      4.44218   -4.00597   -9.43503
H      3.70190   -2.39700   -9.53342
H      4.38508   -2.97645   -7.19111
H      3.29349   -4.40047   -7.25375
H     -1.57871   -2.26321   -2.44827
H     -1.43030   -4.60973   -2.30685
H      0.04560   -4.56529   -1.54961
H     -0.07051   -4.04701   -3.12324
H      1.67092   -3.47696   -9.61581
