74

C      1.13501    4.81459    1.43556
C      1.14147    4.88168    2.83153
C      0.57106    3.71734    0.78211
C     -0.00549    2.76409    2.91698
C      0.57170    3.85141    3.58647
C      0.00138    2.67257    1.52282
C      0.97689    2.65406    5.80242
C      0.19908    0.90827   -0.33738
C      2.48561    2.81418    5.72417
C      0.45017   -0.53409    0.11262
C      0.51820    3.94698    5.11649
C     -0.67087    1.49350    0.81934
C     -0.86633    4.42381    5.56269
C     -2.07856    1.88811    0.36175
C      5.07959    3.99441    5.85945
C     -1.13156   -2.38981    2.05290
C      3.08864    7.29985    5.18044
C      3.75448    6.49346    7.46398
C      5.47227    6.84598    5.66625
C      1.81058   -0.62129    3.96120
C     -0.60295   -0.89861    4.62620
C      0.89143   -2.89663    4.41562
C      3.86812    4.86807    5.48882
C      0.20920   -1.68009    2.30936
C      4.03554    6.35927    5.95679
C      0.56084   -1.51109    3.82327
N      2.68386    4.22521    6.09345
N      0.36680   -0.41408    1.57121
O      1.46819    4.91806    5.59967
O     -0.85371    0.38515    1.72398
H      1.57572    5.62138    0.85465
H      1.58548    5.72827    3.34098
H      0.57710    3.68064   -0.30490
H     -0.46971    1.95934    3.47424
H      0.62476    1.74594    5.31770
H      0.64517    2.65358    6.84507
H      1.14062    1.45104   -0.42570
H     -0.31796    0.95288   -1.29936
H      3.01473    2.17562    6.43440
H      2.83608    2.58469    4.70535
H     -0.30909   -1.21190   -0.30419
H      1.44407   -0.89987   -0.15964
H     -0.89708    4.51909    6.65190
H     -1.63393    3.71346    5.24060
H     -1.09443    5.39608    5.11649
H     -2.55801    1.04901   -0.15197
H     -2.03034    2.74412   -0.31740
H     -2.69074    2.17073    1.22313
H      5.21615    3.94344    6.94413
H      5.99080    4.39349    5.41382
H      4.96610    2.97551    5.48407
H     -1.97319   -1.77179    2.36795
H     -1.17484   -3.33967    2.59122
H     -1.26286   -2.61508    0.99093
H      3.27094    7.23232    4.10074
H      2.04114    7.06812    5.36747
H      3.27287    8.33848    5.47904
H      4.40155    5.83816    8.05660
H      2.71865    6.23593    7.69486
H      3.93893    7.52485    7.78678
H      6.21572    6.37009    6.31183
H      5.53576    7.92562    5.83863
H      5.75763    6.66383    4.62276
H      2.65117   -1.03432    3.39101
H      1.63065    0.38718    3.58715
H      2.11553   -0.56147    5.01263
H     -1.46152   -1.57601    4.67270
H     -0.94596    0.03813    4.18360
H     -0.28645   -0.70201    5.65693
H      0.03820   -3.58084    4.37690
H      1.18076   -2.79782    5.46763
H      1.72777   -3.36730    3.88511
H      3.77220    4.86641    4.38946
H      1.01085   -2.30181    1.88863
