19   

C        2.1670138791   -0.4885441013   -0.0248286239
C        0.8667348770   -0.3835896064    0.4526156605
C        3.1485069385   -1.0993533165    0.7575353605
C        0.5593291585   -0.8885953097    1.7143610134
C        3.8455315202   -3.0606828245    3.9269565764
C        6.1165536298   -2.6573385043    3.1789166544
C        2.8595678527   -1.6261686417    2.0394869149
C        1.5354982797   -1.5023338787    2.5111865296
C        3.9436541638   -2.2531196598    2.8176715337
N        5.2559536655   -2.0428233336    2.4045458545
O        1.1466512715   -1.9387541741    3.7453339472
S        5.4111199217   -3.5708169467    4.4988681389
H        2.4214723269   -0.0965141585   -1.0030170333
H        0.1007715906    0.0909006135   -0.1511291023
H        4.1511206051   -1.1633223163    0.3488862278
H       -0.4569955959   -0.7933606809    2.0757300597
H        2.9212885618   -3.3667600619    4.3938459378
H        7.1866666262   -2.6074571343    3.0149794909
H        0.2151390827   -1.7095232615    3.9017903555
19   

C        2.1435893983   -0.5681215436   -0.0585196438
C        0.8650162907   -0.3924072183    0.4603207193
C        3.1269637266   -1.1929298527    0.7111484961
C        0.5807646418   -0.8386834103    1.7508689993
C        3.8234142554   -3.2201135879    3.7912737045
C        6.1011834712   -2.5353369542    3.3018538408
C        2.8553042259   -1.6653321477    2.0135402712
C        1.5598704631   -1.4652098420    2.5330394600
C        3.9427949656   -2.2888855373    2.7904260251
N        5.2532108141   -1.9092502586    2.5217701331
O        1.2180332713   -1.8460224951    3.8001116503
S        5.3794295882   -3.6590912786    4.4425754949
H        2.3792522116   -0.2180001188   -1.0570891532
H        0.0985682833    0.0939182014   -0.1332964190
H        4.1182581712   -1.3137728105    0.2872650148
H       -0.4160764797   -0.6866834064    2.1455136570
H        2.8837125281   -3.6343868679    4.1292010809
H        7.1713030078   -2.3731050902    3.2465899336
H        0.3158419181   -1.5491286900    4.0063671427
19   

C        2.1118001007   -0.6268985477   -0.0850654046
C        0.8597476846   -0.3830841672    0.4738533889
C        3.0969976063   -1.2689330073    0.6687560265
C        0.6036278497   -0.7768479072    1.7885321743
C        3.8160942773   -3.3498629427    3.6511811497
C        6.0543154754   -2.4236823515    3.4473920608
C        2.8463203669   -1.6940259874    1.9875803346
C        1.5852664876   -1.4203775326    2.5526846005
C        3.9396097116   -2.3151981969    2.7622582456
N        5.2205586247   -1.7880727791    2.6590529346
O        1.2896812118   -1.7620545867    3.8427286525
S        5.3477309451   -3.7278035875    4.3922685418
H        2.3254002660   -0.3135720621   -1.1006679924
H        0.0927615062    0.1171952833   -0.1073345815
H        4.0740976273   -1.4396494668    0.2291146386
H       -0.3703787218   -0.5714811372    2.2147309493
H        2.8812777034   -3.8506042047    3.8648054389
H        7.1044705824   -2.1640671672    3.5130911446
H        0.4178168143   -1.4116913739    4.0907496433
19   

C        2.0836875552   -0.6758132816   -0.1004897497
C        0.8617526813   -0.3717004588    0.4973468852
C        3.0776864392   -1.3228779030    0.6380596784
C        0.6440827093   -0.7094047244    1.8353344166
C        3.8548277474   -3.4622126947    3.4858465882
C        6.0046386061   -2.3321311849    3.6158268860
C        2.8593909276   -1.6939537230    1.9760559761
C        1.6346546934   -1.3581410415    2.5827173849
C        3.9601996289   -2.3158469467    2.7465701108
N        5.1844305678   -1.6688644254    2.8359197104
O        1.3888268766   -1.6580729518    3.8933394383
S        5.3482179574   -3.8072690749    4.3157571619
H        2.2667840937   -0.4040884404   -1.1338797361
H        0.0885899428    0.1324255341   -0.0722132081
H        4.0350371702   -1.5387087159    0.1757108107
H       -0.3052748710   -0.4580950522    2.2914602056
H        2.9497065501   -4.0509716097    3.5522859312
H        7.0149302402   -1.9953970034    3.8169668846
H        0.5452615099   -1.2667291513    4.1749841751
19   

C        2.0516130658   -0.7300297169   -0.1249525291
C        0.8617467946   -0.3592435650    0.5012923047
C        3.0523844615   -1.3743156137    0.6074281727
C        0.6811954471   -0.6294893412    1.8605876806
C        3.9141944463   -3.5735403528    3.2568967673
C        5.9224146315   -2.3051720969    3.7862416503
C        2.8696401018   -1.6710326223    1.9676633929
C        1.6780546159   -1.2756505601    2.6013596980
C        3.9665434874   -2.3096999314    2.7380638445
N        5.1076812493   -1.5869788673    3.0506410465
O        1.4734549393   -1.5233373033    3.9296514590
S        5.3606412632   -3.9307738024    4.1616874457
H        2.2035505496   -0.5129603465   -1.1761731257
H        0.0837759638    0.1424162033   -0.0638862116
H        3.9844584905   -1.6451860631    0.1233715465
H       -0.2438740587   -0.3304581582    2.3373473944
H        3.0718647519   -4.2401916237    3.1301674602
H        6.8743130301   -1.9254038987    4.1386601870
H        0.6554402105   -1.0941325367    4.2301097532
19   

C        1.9971519021   -0.8307550754   -0.1428235194
C        0.8440692526   -0.3838259111    0.5031795206
C        3.0098615779   -1.4538187716    0.5916967474
C        0.7088130425   -0.5621784959    1.8830688017
C        4.0408608956   -3.6378935276    2.9839239596
C        5.8406342005   -2.3042895056    3.9369303171
C        2.8781835428   -1.6409143705    1.9766401346
C        1.7169939043   -1.1868164688    2.6268477622
C        3.9672859016   -2.2933378156    2.7492391525
N        4.9962522580   -1.5378159956    3.2890694381
O        1.5526935660   -1.3594048907    3.9724074457
S        5.4534103079   -4.0218747493    3.9305653504
H        2.1097762875   -0.6910991645   -1.2119868855
H        0.0571867597    0.1014912550   -0.0639332171
H        3.9100828892   -1.7908801383    0.0895309552
H       -0.1910604452   -0.2119714948    2.3730213122
H        3.3076142877   -4.3514361285    2.6329624879
H        6.7172321206   -1.9097086065    4.4373334997
H        0.7585970602   -0.8914309637    4.2782459006
19   

C        1.9280916273   -0.9459585471   -0.1465788314
C        0.8174021207   -0.4163479769    0.5105534433
C        2.9494909843   -1.5520723055    0.5898657913
C        0.7301065180   -0.5009200981    1.9029728202
C        4.2057626715   -3.6350096360    2.7251997953
C        5.7567997122   -2.3159965660    4.0592391410
C        2.8753465032   -1.6291669692    1.9902385441
C        1.7468023918   -1.1080356186    2.6498544149
C        3.9591757243   -2.2904790903    2.7581762694
N        4.8570645726   -1.5413047855    3.5026292095
O        1.6183000103   -1.2002374227    4.0071404799
S        5.5971815491   -4.0315706601    3.6976785688
H        2.0001770321   -0.8848335356   -1.2265788158
H        0.0239027434    0.0564050181   -0.0579590807
H        3.8136575441   -1.9577243473    0.0753238465
H       -0.1411961004   -0.0943485493    2.4009667566
H        3.6068912058   -4.3446425953    2.1704348562
H        6.5478318396   -1.9275397757    4.6900123817
H        0.8526086774   -0.6861047201    4.3103010331
19   

C        1.8594135373   -1.0479809193   -0.1418183579
C        0.7927364971   -0.4435778285    0.5219155840
C        2.8860323317   -1.6479823455    0.5918235530
C        0.7532852475   -0.4501893305    1.9184284708
C        4.3649513699   -3.5874939155    2.5343023707
C        5.6663103907   -2.3423835611    4.1705267247
C        2.8662811032   -1.6427521757    1.9977907942
C        1.7750061765   -1.0507923570    2.6642081135
C        3.9567111300   -2.2996638409    2.7525972833
N        4.7180897646   -1.5891791959    3.6682852435
O        1.6769062308   -1.0713307112    4.0270003756
S        5.7297081626   -3.9855022931    3.5432740809
H        1.8935230289   -1.0493424495   -1.2254235078
H       -0.0049181333    0.0250550119   -0.0441973644
H        3.7150037758   -2.1094135962    0.0666322668
H       -0.0872027430    0.0105827535    2.4221468194
H        3.8928644300   -4.2602175030    1.8311316125
H        6.3673496378   -1.9769939653    4.9118210186
H        0.9403434911   -0.5129038032    4.3227847971
19   

C        1.7952620247   -1.1384006999   -0.1359379130
C        0.7723138495   -0.4642218798    0.5264190677
C        2.8224359362   -1.7376509441    0.5966860942
C        0.7776748709   -0.4008191590    1.9209755289
C        4.4971965009   -3.5238004163    2.3966481740
C        5.5694676785   -2.4038004471    4.2698774270
C        2.8506293493   -1.6674839402    2.0033414641
C        1.7998531746   -1.0001818740    2.6679779281
C        3.9562470365   -2.3126776686    2.7405260045
N        4.5880996783   -1.6747531811    3.7975188343
O        1.7244629417   -0.9485148814    4.0313556143
S        5.8277031504   -3.9355794803    3.4450205013
H        1.7962137754   -1.1933378975   -1.2187057193
H       -0.0261385170    0.0044735026   -0.0385307247
H        3.6173549450   -2.2459839277    0.0627257574
H       -0.0309835371    0.1139329204    2.4245322407
H        4.1347550310   -4.1427732615    1.5873316973
H        6.1830391534   -2.0827766996    5.1035054654
H        1.0096012324   -0.3551246386    4.3107109388
19   

C        1.7318361352   -1.2157223301   -0.1149188544
C        0.7459214143   -0.4881649538    0.5430236443
C        2.7646006901   -1.8071156055    0.6152338377
C        0.7961843493   -0.3622876947    1.9309333836
C        4.6334776964   -3.4271515844    2.2959484643
C        5.4842035383   -2.4757240508    4.3629475962
C        2.8386540050   -1.6842870509    2.0199404236
C        1.8242885417   -0.9527560100    2.6779826754
C        3.9683649781   -2.3099472105    2.7363910260
N        4.4733464975   -1.7747401751    3.9121727520
O        1.7721994407   -0.8251306904    4.0373558836
S        5.9294273209   -3.8610477237    3.3781491916
H        1.7013051454   -1.3170864542   -1.1939220314
H       -0.0573515669   -0.0248878105   -0.0195779215
H        3.5285636816   -2.3479198700    0.0694356849
H        0.0157688329    0.1968023714    2.4317890809
H        4.3773570156   -3.9809126016    1.4036319822
H        6.0107004094   -2.2175246790    5.2743082342
H        1.0635988129   -0.2157865141    4.2964903895
19   

C        1.6719294113   -1.2958750295   -0.0962388018
C        0.7195521739   -0.5206326013    0.5520667811
C        2.7137335608   -1.8726754845    0.6319012630
C        0.8156651103   -0.3300251335    1.9283899207
C        4.7709537047   -3.3079000100    2.2146150865
C        5.3904269662   -2.5887303625    4.4473133817
C        2.8346265341   -1.6949446439    2.0310778532
C        1.8538211163   -0.9038042587    2.6755777406
C        3.9803939545   -2.3091725007    2.7348592227
N        4.3552206230   -1.9157162088    4.0113073160
O        1.8352308117   -0.6840064371    4.0238384226
S        6.0240576600   -3.7833719565    3.3294107181
H        1.6087513484   -1.4466803566   -1.1680474084
H       -0.0913380131   -0.0684973261   -0.0086945988
H        3.4417926094   -2.4480243135    0.0749826792
H        0.0627244030    0.2715894042    2.4220084456
H        4.6360033953   -3.7687446700    1.2472378200
H        5.8247163617   -2.4196872067    5.4257001858
H        1.1170304174   -0.0779151485    4.2624192950
19   

C        1.6188221228   -1.3746885128   -0.0698341507
C        0.6996166094   -0.5525249626    0.5659364100
C        2.6724576854   -1.9334011756    0.6549729829
C        0.8426653181   -0.2952911899    1.9262832505
C        4.9221541477   -3.1372738429    2.1610290404
C        5.2636926566   -2.7553281173    4.5308187267
C        2.8437008402   -1.6895366984    2.0406820030
C        1.8946340882   -0.8476209916    2.6708981702
C        3.9840958599   -2.3153326925    2.7462179541
N        4.2054504137   -2.1154235975    4.1015566806
O        1.9316184603   -0.5238152207    3.9975693955
S        6.1143215559   -3.6826263791    3.3102950977
H        1.5171510634   -1.5819729882   -1.1291883881
H       -0.1214056287   -0.1153336895    0.0080605919
H        3.3539697300   -2.5646600580    0.1016630888
H        0.1179702184    0.3481144142    2.4093863178
H        4.9448567382   -3.4274080905    1.1217842107
H        5.5898050459   -2.7150219967    5.5635054204
H        1.1942562837    0.0616309610    4.2286365978
19   

C        1.5756672056   -1.4584737883   -0.0467074208
C        0.6884167932   -0.5879361872    0.5723789982
C        2.6400392877   -1.9991257347    0.6765193950
C        0.8749938074   -0.2620321529    1.9135721717
C        5.0438385479   -2.9391131193    2.1382303120
C        5.1401741841   -2.9387324044    4.5624602080
C        2.8524463632   -1.6844867359    2.0402538617
C        1.9398169773   -0.7938169836    2.6542735456
C        3.9818756343   -2.3175588396    2.7538159092
N        4.0602336826   -2.3312744354    4.1388685593
O        2.0525040638   -0.3816213559    3.9519113477
S        6.1826485758   -3.5674975046    3.2989957898
H        1.4366697048   -1.7221894240   -1.0891281223
H       -0.1415145749   -0.1659539548    0.0159907520
H        3.2882180740   -2.6899385258    0.1531633149
H        0.1792987766    0.4228689402    2.3820148342
H        5.1845065189   -3.0197515338    1.0704641817
H        5.3725072250   -3.0464439332    5.6154769643
H        1.3048799754    0.1846638640    4.1977917719
19   

C        2.0376320553   -0.4603477963    0.0386734824
C        0.7799033995   -0.3354766705    0.6190395105
C        3.0744201219   -1.0692528954    0.7484390199
C        0.5689173339   -0.8157562667    1.9111404491
C        5.3266800045   -1.9331031182    2.5160735619
C        4.9375979536   -3.6935769071    4.1441831010
C        2.8792801933   -1.5699764579    2.0541494782
C        1.6001353876   -1.4262038984    2.6375555159
C        4.0058221477   -2.2274820184    2.7466454074
N        3.8026419027   -3.2410719359    3.6713969207
O        1.3246003846   -1.8231258715    3.9156186063
S        6.3768818141   -2.9280446402    3.4887362211
H        2.2097939176   -0.0912382080   -0.9661003021
H       -0.0295418197    0.1347210681    0.0712205796
H        4.0355505072   -1.1704933626    0.2585531469
H       -0.4118277920   -0.7014016281    2.3556053490
H        5.6744813670   -1.1697870345    1.8342663678
H        4.9857688887   -4.4856112579    4.8822919884
H        0.3782856259   -1.7294031037    4.1060631001
19   

C        2.0238903324   -0.5515145726   -0.0100154008
C        0.7818247409   -0.3666912196    0.5922424506
C        3.0620954047   -1.1521379124    0.7057603876
C        0.5875274485   -0.7762721289    1.9125648281
C        5.3007598287   -1.8001280211    2.6558332602
C        4.9480856880   -3.7768968846    4.0274317904
C        2.8761670080   -1.5861203729    2.0330091111
C        1.6211216055   -1.3768272286    2.6427084933
C        3.9996448211   -2.2186634689    2.7538679696
N        3.8134622705   -3.3577751392    3.5227665322
O        1.3867140760   -1.7104309022    3.9468986772
S        6.3599557775   -2.8252268055    3.5865144947
H        2.1824356355   -0.2338860063   -1.0344082693
H       -0.0279014482    0.0972569926    0.0395531770
H        4.0176129286   -1.3000728809    0.2153423407
H       -0.3784432163   -0.6138977749    2.3740916345
H        5.6203190013   -0.9399058096    2.0836563425
H        5.0133229242   -4.6514702739    4.6640841301
H        0.4461980227   -1.6070331267    4.1611735720
19   

C        1.9988873477   -0.6496062308   -0.0468858010
C        0.7808586095   -0.3908055583    0.5800432466
C        3.0375097231   -1.2490980425    0.6700803089
C        0.6102774839   -0.7250680503    1.9257785861
C        5.2499010127   -1.6931720837    2.8212534489
C        4.9785706583   -3.8553792729    3.9039715243
C        2.8697709514   -1.6077844189    2.0193097981
C        1.6449220078   -1.3236910473    2.6551628275
C        3.9906741597   -2.2258010665    2.7621589508
N        3.8499678210   -3.4689838448    3.3602466551
O        1.4504785186   -1.5965976392    3.9799093453
S        6.3261689393   -2.7408786494    3.7061005776
H        2.1384547349   -0.3889148628   -1.0899241573
H       -0.0283962483    0.0724924453    0.0261338118
H        3.9788801155   -1.4527174407    0.1717833216
H       -0.3357352184   -0.5067024709    2.4051925521
H        5.5268197807   -0.7458496808    2.3787954406
H        5.0777193288   -4.7979992644    4.4294430084
H        0.5204454172   -1.4606225171    4.2215776311
19   

C        1.9667022030   -0.7588013915   -0.0876250742
C        0.7778533201   -0.4198797882    0.5586525672
C        3.0063910540   -1.3526347765    0.6330735132
C        0.6362205798   -0.6711131295    1.9262687458
C        5.1634984719   -1.5977484437    3.0336905735
C        5.0291012368   -3.9134775057    3.7715657964
C        2.8668449360   -1.6203856579    2.0047082277
C        1.6725214247   -1.2635770587    2.6578070826
C        3.9855171922   -2.2360653805    2.7606188658
N        3.9215553936   -3.5605277351    3.1647263900
O        1.5137312846   -1.4699795109    3.9992280289
S        6.2594042962   -2.6586962168    3.8777309231
H        2.0827813408   -0.5645357688   -1.1478696168
H       -0.0316683609    0.0393602880    0.0017703973
H        3.9268560641   -1.6193500960    0.1254343941
H       -0.2878092204   -0.3952501816    2.4187483956
H        5.3708308721   -0.5717191739    2.7611722666
H        5.1803882580   -4.9091747627    4.1718225110
H        0.5978150504   -1.2865953875    4.2637814442
19   

C        1.9275084745   -0.8780789412   -0.1229700032
C        0.7746318218   -0.4545057528    0.5389342739
C        2.9746925446   -1.4541171094    0.6015329585
C        0.6739883274   -0.6093037426    1.9246060172
C        5.0344581124   -1.5357150815    3.3047937026
C        5.0908799392   -3.9460575132    3.6409222780
C        2.8824623781   -1.6076483833    1.9937801459
C        1.7184311544   -1.1834384250    2.6589806755
C        3.9972624715   -2.2333371132    2.7517472240
N        4.0352778011   -3.6058348908    2.9408208167
O        1.5982853683   -1.3109331871    4.0141990782
S        6.1371766982   -2.6129728740    4.1186712635
H        2.0094437093   -0.7649065109   -1.1980403395
H       -0.0403218419   -0.0085989036   -0.0208439720
H        3.8655552316   -1.7925697672    0.0838534091
H       -0.2252753492   -0.2758636654    2.4272133505
H        5.1359029928   -0.4604153718    3.2464351380
H        5.3068802110   -4.9750964586    3.9034939225
H        0.6982165805   -1.0799980105    4.2964602648
19   

C        1.8838574421   -0.9847763312   -0.1380538890
C        0.7670285460   -0.4820954651    0.5294004414
C        2.9396736044   -1.5386801026    0.5909530904
C        0.7089841813   -0.5418612347    1.9245470351
C        4.8738738277   -1.5518507088    3.5671616129
C        5.1600380049   -3.9671400297    3.4865359178
C        2.9000273873   -1.5809635377    1.9938930511
C        1.7627685086   -1.0938961785    2.6626528570
C        4.0094630124   -2.2203129983    2.7454646706
N        4.1693332474   -3.5971346177    2.7104604217
O        1.6754595369   -1.1411083031    4.0256388575
S        5.9829633620   -2.6592996667    4.3300219478
H        1.9305901182   -0.9526654184   -1.2206686181
H       -0.0547769068   -0.0530975054   -0.0335574609
H        3.7990834883   -1.9460483354    0.0695026414
H       -0.1663560851   -0.1548895183    2.4310102397
H        4.8453060600   -0.4823082434    3.7261199633
H        5.4519674605   -5.0045246613    3.6011860165
H        0.7899767413   -0.8668185030    4.3160289076
19   

C        1.8660427607   -1.0522203046   -0.1394390671
C        0.7800241396   -0.4777553383    0.5190310008
C        2.9191044610   -1.5969991397    0.5997833557
C        0.7495939698   -0.4593693352    1.9155953839
C        4.7292121246   -1.6237010389    3.7642627466
C        5.2583980981   -3.9562318309    3.3227321811
C        2.9133908422   -1.5578393019    2.0047734382
C        1.8007401122   -1.0028698868    2.6641801094
C        4.0132735737   -2.2063006718    2.7544126991
N        4.3103826039   -3.5406842167    2.5168128188
O        1.7265254444   -0.9791867840    4.0287516214
S        5.8688049144   -2.7503994219    4.4497635382
H        1.8910455222   -1.0842731480   -1.2227680239
H       -0.0402214353   -0.0557931182   -0.0514661539
H        3.7524276162   -2.0623027953    0.0840946036
H       -0.1046031255   -0.0200066289    2.4153891216
H        4.5785121170   -0.6046647362    4.0946401819
H        5.6384612555   -4.9708683889    3.2982118579
H        0.8542006022   -0.6585929032    4.3122047171
19   

C        1.8461851472   -1.1071190123   -0.1407371320
C        0.7901489923   -0.4632110804    0.4992911798
C        2.8880059750   -1.6523395616    0.6131954546
C        0.7793344811   -0.3757847567    1.8925825090
C        4.6017056541   -1.7064198170    3.8999351634
C        5.3778212462   -3.8938484002    3.1775508787
C        2.9038884267   -1.5510405945    2.0175953122
C        1.8188613394   -0.9201350578    2.6572641841
C        3.9978860273   -2.1954652065    2.7720167351
N        4.4428247271   -3.4490842495    2.3721973756
O        1.7458590448   -0.8283547846    4.0190912203
S        5.8003897390   -2.8185748399    4.5034535504
H        1.8578694748   -1.1920176497   -1.2214326813
H       -0.0218671901   -0.0405098994   -0.0823274078
H        3.6977667832   -2.1658312994    0.1054880924
H       -0.0530842655    0.1178367192    2.3783052671
H        4.3495440005   -0.7572022843    4.3534324785
H        5.8564223719   -4.8560175598    3.0371438290
H        0.8896284375   -0.4528259524    4.2841639172
19   

C        1.8195907818   -1.1736522343   -0.1341850363
C        0.8020315799   -0.4579306348    0.4880181652
C        2.8455467861   -1.7322165211    0.6308110988
C        0.8151882966   -0.3112296098    1.8750237611
C        4.4936333976   -1.8275410056    4.0007162239
C        5.5079871006   -3.8231184769    3.0597669023
C        2.8852784093   -1.5821581813    2.0340514310
C        1.8383270413   -0.8688231825    2.6530040658
C        3.9770513763   -2.2214147237    2.7919360845
N        4.5700323002   -3.3641459487    2.2665726251
O        1.7673125510   -0.7126271948    4.0086968119
S        5.7637923070   -2.8972820226    4.5302686287
H        1.8159828548   -1.3018760969   -1.2106648414
H        0.0022128714   -0.0238235092   -0.1020475059
H        3.6252049070   -2.2908305683    0.1238311617
H        0.0116005216    0.2402396288    2.3469018387
H        4.1598267957   -0.9597126838    4.5523527856
H        6.0859216043   -4.7093885451    2.8251483242
H        0.9362078692   -0.2708949323    4.2511304914
19   

C        1.7713222781   -1.2485015876   -0.1249636631
C        0.7974214053   -0.4626235915    0.4780338407
C        2.7841109166   -1.8174705553    0.6490175567
C        0.8428451397   -0.2552706956    1.8551566905
C        4.3732461797   -1.9765807643    4.0880616496
C        5.6230589371   -3.7283425684    2.9704539716
C        2.8557750506   -1.6159827465    2.0485475311
C        1.8528328412   -0.8222540825    2.6444380713
C        3.9477419450   -2.2509626867    2.8090124676
N        4.6850494027   -3.2543645711    2.1872594916
O        1.7967092112   -0.5883422781    3.9886549979
S        5.7117248198   -2.9894701102    4.5580766147
H        1.7461857748   -1.4216668045   -1.1948566168
H        0.0079501451   -0.0190481019   -0.1188953720
H        3.5266402934   -2.4231594151    0.1409708318
H        0.0729494133    0.3540495763    2.3118438220
H        3.9540767924   -1.2198601210    4.7342533089
H        6.2973121641   -4.5178712275    2.6597575869
H        1.0029051079   -0.0704540189    4.2040776239
19   

C        1.6904796391   -1.3422052236   -0.1042462476
C        0.7646589931   -0.4925130421    0.4856443881
C        2.7059806926   -1.9085723351    0.6676018630
C        0.8634544644   -0.2161264778    1.8470696598
C        4.2373419973   -2.1651728125    4.1486918169
C        5.7281400247   -3.6102694481    2.9005255231
C        2.8292847410   -1.6439767760    2.0548688362
C        1.8779748236   -0.7775463467    2.6351328430
C        3.9262528502   -2.2756264943    2.8111664720
N        4.8000085815   -3.1118295343    2.1214577181
O        1.8832738085   -0.4405957978    3.9576894296
S        5.6381270536   -3.1102761183    4.5766708582
H        1.6265643950   -1.5668362727   -1.1629044248
H       -0.0264850818   -0.0497239431   -0.1096549496
H        3.4055395058   -2.5657764622    0.1629721494
H        0.1336705711    0.4485460573    2.2922884693
H        3.7008354317   -1.5738622431    4.8741250986
H        6.4958746059   -4.2827151167    2.5359881341
H        1.1472308460    0.1643649148    4.1501101858
