14   

C       -1.7011906926   -0.2959297756    0.1205196603
C        0.4076507823   -0.7134711401    0.1434816868
C        1.7730573129   -1.3318565289    0.0555675803
C        0.2773311457    0.8242679608    0.1942988081
N        1.3613760181    2.0365410467   -1.9197184339
N       -1.1913227840    0.9108314675    0.1723614630
N       -0.7573022510   -1.3064993701    0.0911884315
N        0.8682054625    1.4878202524   -0.9739554397
N        1.8227321580   -2.6275193672   -0.2958711529
O        2.7942452533   -0.6755390053    0.1547581436
H       -2.7725679924   -0.4822411974    0.0993089850
H        0.7080040281    1.2170656438    1.1249219957
H        2.7417109697   -3.0533835491   -0.3786887517
H        0.9749152844   -3.1821535266   -0.3713890505
14   

C       -1.7273879159   -0.3290658458    0.1096064207
C        0.3844786400   -0.7221975334    0.2211090475
C        1.7549254493   -1.3379939925    0.1760723541
C        0.2360204193    0.8170008366    0.1814011877
N        1.3688796101    1.9233674296   -1.9647665128
N       -1.2320605288    0.8847993256    0.1134079828
N       -0.7725797212   -1.3288754302    0.1532998733
N        0.8551158510    1.4210102891   -1.0042656413
N        1.8391590504   -2.5547442420   -0.3971478306
O        2.7631820352   -0.6933518187    0.4006191689
H       -2.7958368563   -0.5288625555    0.0707384251
H        0.6353778114    1.2651072163    1.1010746613
H        2.7656384705   -2.9654082891   -0.4741409159
H        1.0039933258   -3.1060422659   -0.5720889403
14   

C       -1.7313601377   -0.3398431715    0.0281198529
C        0.3690076636   -0.7524051844    0.2530198917
C        1.7269031564   -1.4014634872    0.2965033448
C        0.2382949966    0.7905043621    0.1545090687
N        1.4562095807    1.8098706658   -1.9879994313
N       -1.2248273852    0.8693739195    0.0240041935
N       -0.7897424809   -1.3473223476    0.1351088220
N        0.9068543224    1.3452487170   -1.0281135422
N        1.8911293754   -2.4848975083   -0.4952976491
O        2.7050856894   -0.8111668996    0.7159505025
H       -2.7993852703   -0.5307752326   -0.0483953160
H        0.6068764493    1.2664717429    1.0732296500
H        2.8230532230   -2.8900864408   -0.5202924189
H        1.0864239427   -3.0090147298   -0.8261531933
14   

C       -1.7346151447   -0.2961788026   -0.0345875458
C        0.3474558878   -0.7520451430    0.2677182009
C        1.6803901280   -1.4461387210    0.3928176440
C        0.2566422194    0.7940776668    0.1112689789
N        1.5279583288    1.7105690169   -2.0465494888
N       -1.2007095699    0.9011422675   -0.0569721860
N       -0.8201744656   -1.3216454427    0.1231828253
N        0.9571825868    1.2908141637   -1.0784355504
N        1.9729381869   -2.3616467768   -0.5622428206
O        2.5966578449   -0.9442988293    1.0160062623
H       -2.8046878161   -0.4650560588   -0.1313596817
H        0.6169646417    1.2942736848    1.0205464074
H        2.9052093156   -2.7647663008   -0.5154189969
H        1.2279044471   -2.8434239242   -1.0562234700
14   

C       -1.7534612670   -0.2775824772   -0.0181682784
C        0.3180538823   -0.7738718897    0.2958949870
C        1.6277624011   -1.5074585558    0.4643432764
C        0.2640426328    0.7698119380    0.0774664115
N        1.5299542010    1.5785121617   -2.1261804781
N       -1.1911247122    0.9049262166   -0.0884208532
N       -0.8635307867   -1.3180768769    0.1743147881
N        0.9633830859    1.2058914058   -1.1364405542
N        2.0526648457   -2.2348355626   -0.6018773895
O        2.4640848067   -1.1257599427    1.2600516428
H       -2.8278157943   -0.4242736450   -0.1028110649
H        0.6402161087    1.2970168951    0.9649377425
H        2.9793051834   -2.6416421389   -0.4997196482
H        1.3782060348   -2.6581732713   -1.2315809691
14   

C       -1.7680032239   -0.2460641765    0.0784349523
C        0.2996597480   -0.7920059971    0.3356095833
C        1.5871909244   -1.5656348305    0.5192980856
C        0.2807000240    0.7442573086    0.0490003350
N        1.4763570359    1.4389576354   -2.2315911859
N       -1.1751226937    0.9140330696   -0.0720607710
N       -0.9019331374   -1.3019448809    0.2908988986
N        0.9425174839    1.1158803844   -1.2067340237
N        2.1277107170   -2.0930091785   -0.6171458446
O        2.3326412042   -1.3501150876    1.4545880285
H       -2.8484766772   -0.3646051890    0.0401639111
H        0.6993796140    1.2988093708    0.9000626785
H        3.0428237354   -2.5170054499   -0.4815924612
H        1.5209702249   -2.4350960943   -1.3552414859
14   

C       -1.7830052983   -0.1865549896    0.2354844255
C        0.2774416643   -0.8051179342    0.3704896714
C        1.5384658250   -1.6240434986    0.5644918811
C        0.2934019919    0.7187467279    0.0131790579
N        1.3402337076    1.3014628395   -2.3699755801
N       -1.1600923589    0.9389915736   -0.0203973199
N       -0.9433418678   -1.2615065777    0.4521808096
N        0.8745249155    1.0259016413   -1.2988547043
N        2.1992214636   -1.9494307370   -0.5922723189
O        2.1516255111   -1.6505222044    1.6129169413
H       -2.8671063704   -0.2648747614    0.2750035532
H        0.7827976605    1.2946889837    0.8105422250
H        3.0900491246   -2.4141998480   -0.4275342235
H        1.6722438886   -2.1727320727   -1.4295686951
14   

C       -1.7822567893   -0.0887012262    0.4085886902
C        0.2545751482   -0.8047040013    0.3858589030
C        1.4831073331   -1.6721015969    0.5933588622
C        0.3027634664    0.7012822517   -0.0464225339
N        1.1194920843    1.1642434652   -2.5437505331
N       -1.1360679804    0.9906542038    0.0378611631
N       -0.9729461896   -1.1864175076    0.6172629104
N        0.7596621267    0.9387106699   -1.4210024303
N        2.2774708666   -1.8110286572   -0.5236492329
O        1.8931491466   -2.0366357929    1.6770969858
H       -2.8611106031   -0.1146634418    0.5441861990
H        0.8848523542    1.2910972015    0.6746686658
H        3.1183680080   -2.3561780477   -0.3406666613
H        1.8619056798   -1.8461953167   -1.4466207768
14   

C       -1.7614661813   -0.0206300512    0.5550505866
C        0.2390099571   -0.8274062185    0.3870258388
C        1.4329334211   -1.7487110592    0.5755436052
C        0.3093620072    0.6659019749   -0.0871899648
N        0.8673599563    1.0463513728   -2.6691918465
N       -1.1016740516    1.0233543440    0.1149661715
N       -0.9825161721   -1.1446840635    0.7263797444
N        0.6280836153    0.8558189885   -1.5079547257
N        2.3557810668   -1.7023535717   -0.4539749633
O        1.6538375670   -2.4247261022    1.5605323005
H       -2.8264422965    0.0005558976    0.7749577037
H        0.9802625391    1.2495697418    0.5574993125
H        3.1469084630   -2.3252490188   -0.2974852494
H        2.0863368136   -1.4777289995   -1.4020371204
14   

C       -1.7440552704    0.0401240377    0.6212209752
C        0.2232454515   -0.8375290676    0.3737468881
C        1.3764366113   -1.8157945417    0.5457294184
C        0.3118612943    0.6465596772   -0.1325364808
N        0.6858598454    0.9195370007   -2.7619200766
N       -1.0711951349    1.0579593497    0.1424708878
N       -0.9940603934   -1.1057834419    0.7691619562
N        0.5335463503    0.7803551579   -1.5784214971
N        2.4332023924   -1.6226293154   -0.3283450838
O        1.4315970647   -2.7110665790    1.3656631968
H       -2.7960401627    0.0978513243    0.8913613485
H        1.0418862581    1.2240898782    0.4502225158
H        3.1839375479   -2.3009841837   -0.2071581772
H        2.3880141811   -1.0650084221   -1.1684720562
14   

C       -1.7418869226   -0.3644458600   -0.1653226950
C        0.3485540042   -0.7484078713    0.2830202006
C        1.6090552851   -1.5423752629    0.5939521648
C        0.1247883611    0.8000940600    0.3898817965
N        1.3787933733    2.1746232776   -1.5254206091
N       -1.3121586772    0.8463084931    0.0918909392
N       -0.7705427261   -1.3347123568   -0.0574987214
N        0.8298239793    1.5509185039   -0.6575907778
N        2.7542834529   -0.7673156778    0.7026709921
O        1.6982902869   -2.7536592727    0.6408180935
H       -2.7740178145   -0.5862657386   -0.4270339701
H        0.3509178729    1.1762087216    1.3959886706
H        3.5973943880   -1.3152162764    0.8687509272
H        2.7787075602    0.2382323621    0.7907951126
14   

C       -1.7513687372   -0.3569983529   -0.1102408992
C        0.3455043941   -0.7562158356    0.2806253148
C        1.6294302241   -1.5332064724    0.5137434681
C        0.1503806891    0.7957634342    0.3433430871
N        1.4001032302    2.0680323944   -1.6437235871
N       -1.2941370725    0.8553194203    0.0863418605
N       -0.7916483394   -1.3387992758    0.0000811202
N        0.8496378685    1.4925644691   -0.7443458938
N        2.7221039350   -0.7306094263    0.8123324212
O        1.7838764337   -2.7280161186    0.3537933226
H       -2.7948395172   -0.5707230492   -0.3304526071
H        0.4074571210    1.2016356949    1.3296615998
H        3.5811581809   -1.2648750009    0.9366439417
H        2.6632764924    0.2087802212    1.1800339254
14   

C       -1.7647358111   -0.3478535799   -0.0313223749
C        0.3426580357   -0.7366986184    0.2981037189
C        1.6517761835   -1.4883338979    0.4544104601
C        0.1542394689    0.8166830181    0.3084826950
N        1.3690253560    1.9948672362   -1.7560861661
N       -1.2982381603    0.8702305753    0.0981530002
N       -0.8034826365   -1.3284210392    0.0824286867
N        0.8317406486    1.4628077691   -0.8229369695
N        2.6887786218   -0.7091008631    0.9405229988
O        1.8673757963   -2.6302845074    0.0992033502
H       -2.8158756924   -0.5663114005   -0.2056285293
H        0.4435876396    1.2595638207    1.2690811046
H        3.5616750779   -1.2292489678    1.0198155370
H        2.5496088556    0.1060077631    1.5230843059
14   

C       -1.7517012451   -0.3385323097    0.0232322944
C        0.3658459686   -0.7068239256    0.2950943158
C        1.6941680767   -1.4335579347    0.3945407396
C        0.1715100070    0.8460139922    0.2580722620
N        1.3303928894    1.9419753422   -1.8820161728
N       -1.2877444253    0.8855129959    0.0955710978
N       -0.7822825864   -1.3119434060    0.1368596345
N        0.8167695684    1.4476618373   -0.9155425466
N        2.6691108802   -0.7380782834    1.0790351526
O        1.9704025443   -2.4820027870   -0.1541470608
H       -2.8070286900   -0.5664885201   -0.1083592042
H        0.4937263444    1.3236680839    1.1909711059
H        3.5512317770   -1.2460524413    1.1257942987
H        2.4533502860   -0.0664635029    1.8053523067
14   

C       -1.7473089730   -0.3422132327    0.0959716155
C        0.3815438403   -0.6771151668    0.2972371969
C        1.7274310793   -1.3741258488    0.3559239051
C        0.1693303269    0.8719650175    0.2097125435
N        1.2416340978    1.8802361239   -2.0165367176
N       -1.2959729458    0.8888815644    0.1059014264
N       -0.7629912511   -1.3019472585    0.2073981935
N        0.7657301902    1.4266641605   -1.0116496876
N        2.6324487356   -0.8119915624    1.2206433041
O        2.0793986671   -2.2681579049   -0.3881356374
H       -2.8042907812   -0.5852303155    0.0139877540
H        0.5283150052    1.3879310897    1.1083136415
H        3.5268364742   -1.2994048443    1.2328635911
H        2.3431926035   -0.2953212342    2.0430449388
14   

C       -1.6973094385   -0.3432885916    0.1734544096
C        0.4404894801   -0.6331122577    0.2944091480
C        1.8085438749   -1.2822926151    0.3324212919
C        0.2002034656    0.9080628477    0.1638755492
N        1.1845038364    1.8325358485   -2.1377332474
N       -1.2685905415    0.8950479594    0.1191707736
N       -0.6926072407   -1.2834666198    0.2834339677
N        0.7458903809    1.4191455924   -1.0992943280
N        2.6231474973   -0.8926953201    1.3556022831
O        2.2817462013   -1.9034752421   -0.5991512515
H       -2.7523780618   -0.6056430418    0.1420976048
H        0.5903927372    1.4592903509    1.0281866345
H        3.5473387140   -1.3190079266    1.3262752291
H        2.2487992834   -0.5803128340    2.2449161547
14   

C       -1.6792619636   -0.3261300012    0.2997728587
C        0.4597158670   -0.5986504840    0.3087769703
C        1.8439117054   -1.2027690333    0.3335417871
C        0.2068037792    0.9306732103    0.1116478431
N        1.0999926923    1.7223572475   -2.2745169111
N       -1.2627908038    0.9077111149    0.1413743334
N       -0.6637878060   -1.2551619015    0.4197708925
N        0.6985598705    1.3712771017   -1.1990730459
N        2.5802614216   -1.0076679452    1.4574601454
O        2.4277072277   -1.5081814615   -0.6889110641
H       -2.7330006551   -0.5926392704    0.3395421607
H        0.6380236083    1.5243235735    0.9272661334
H        3.5334921574   -1.3594817571    1.4000296431
H        2.1394545225   -0.8986434766    2.3649303369
14   

C       -1.6501915849   -0.3072778320    0.4359428725
C        0.4856122177   -0.5627934452    0.3410906135
C        1.8849345913   -1.1207718136    0.3602427515
C        0.2110497949    0.9472073669    0.0661652440
N        1.0081555826    1.6141312216   -2.3906155776
N       -1.2557218038    0.9142158897    0.1652648477
N       -0.6195198266   -1.2178293308    0.5750793355
N        0.6462284716    1.3197511777   -1.2848808178
N        2.5459333391   -1.1279410189    1.5393450526
O        2.5488018990   -1.1764258414   -0.6584434572
H       -2.6980002525   -0.5773988366    0.5459188913
H        0.6725168862    1.5874485904    0.8284283696
H        3.5174804974   -1.4246178789    1.4855138421
H        2.0473292566   -1.1800918573    2.4218968393
14   

C       -1.6190803749   -0.2698725152    0.5164438320
C        0.5117357388   -0.5169950385    0.3501013812
C        1.9224868327   -1.0388321313    0.3794549617
C        0.2160623447    0.9676361074   -0.0085262956
N        0.9273027923    1.5110965963   -2.5211118910
N       -1.2462811313    0.9313787971    0.1444098638
N       -0.5748960845   -1.1609158766    0.6823426308
N        0.6015063983    1.2708179630   -1.3915878876
N        2.4964020544   -1.2534288673    1.5800398381
O        2.6552758713   -0.9070159588   -0.5841430290
H       -2.6597238413   -0.5382203636    0.6838129225
H        0.6979429656    1.6540556837    0.6991304788
H        3.4777135677   -1.5191303075    1.5573841541
H        1.9349092662   -1.4329155773    2.4065272343
14   

C       -1.5892529582   -0.2581443103    0.5702208168
C        0.5419548465   -0.4705212327    0.3761538444
C        1.9677113205   -0.9442189985    0.4209996901
C        0.2114892658    0.9814541624   -0.0582800305
N        0.8657925855    1.4235401188   -2.6058320697
N       -1.2472849414    0.9261972012    0.1228473136
N       -0.5238615993   -1.1175152880    0.7666963745
N        0.5643591393    1.2264894351   -1.4614729144
N        2.4545427461   -1.3685678446    1.6010429526
O        2.7567406146   -0.6483294183   -0.4584837044
H       -2.6211284281   -0.5359845604    0.7727345234
H        0.6918685438    1.7130108178    0.6039066708
H        3.4423587075   -1.6081448144    1.6195936717
H        1.8351143558   -1.6641085959    2.3493062458
14   

C       -1.7185991132   -0.3035610640    0.1116182021
C        0.3696438190   -0.7438078203   -0.1461933379
C        1.7067045497   -1.3940819814   -0.3581411197
C        0.2963067926    0.7348939343    0.3039455367
N        1.2683874314    2.3992370788   -1.5395591685
N       -1.1666785195    0.8474649490    0.4115190020
N       -0.8121582806   -1.2992303714   -0.2036982401
N        0.8240485311    1.6527839295   -0.7123212727
N        1.8863852030   -2.6263303012    0.1450787747
O        2.6768797540   -0.7536072763   -0.7222152014
H       -2.7949672217   -0.4597689939    0.1160972045
H        0.8035240701    0.8797656777    1.2664860685
H        2.8151368717   -3.0282430205    0.0501838732
H        1.0973112667   -3.1955499350    0.4360651360
14   

C       -1.7060139226   -0.2981542175    0.1122671908
C        0.3901938733   -0.7301349238   -0.0835396648
C        1.7393819386   -1.3651612835   -0.2542185729
C        0.2961868070    0.7704192003    0.2705846787
N        1.2759893247    2.3383134572   -1.6517441372
N       -1.1693149289    0.8739472575    0.3516882595
N       -0.7855011283   -1.2999821447   -0.1358356190
N        0.8281787464    1.6337059590   -0.7904725332
N        1.8506531664   -2.6666299661    0.0501410765
O        2.7390574426   -0.7063098585   -0.4794517477
H       -2.7807443223   -0.4653457721    0.1132224585
H        0.7886841041    0.9785939716    1.2293120325
H        2.7752294748   -3.0822423461   -0.0224732255
H        1.0297377336   -3.2368145064    0.2308183397
14   

C       -1.7037635257   -0.2952736416    0.1268210639
C        0.3984774884   -0.7219934193   -0.0024243345
C        1.7559785486   -1.3451779884   -0.1433545785
C        0.2885924185    0.7959980554    0.2512724117
N        1.2893421130    2.2532927270   -1.7458848854
N       -1.1787427259    0.8931581364    0.3030095210
N       -0.7726532362   -1.3022579030   -0.0512128704
N        0.8323952518    1.5969622268   -0.8519288393
N        1.8288888149   -2.6803349572   -0.0529481647
O        2.7696839753   -0.6783200687   -0.2522341884
H       -2.7771965771   -0.4705821021    0.1234100718
H        0.7638804145    1.0675011382    1.2029660053
H        2.7501059874   -3.1036688751   -0.1225567298
H        0.9913970777   -3.2483653528    0.0356631569
14   

C       -1.7056256409   -0.3041926485    0.1204193894
C        0.4025670370   -0.7196837734    0.0677136265
C        1.7671851627   -1.3332383370   -0.0468988937
C        0.2749303119    0.8107605644    0.2196947955
N        1.3111631358    2.1516879507   -1.8399227724
N       -1.1938671569    0.8975305477    0.2342298223
N       -0.7631504755   -1.3111635286    0.0172264104
N        0.8387431275    1.5463629619   -0.9184386593
N        1.8233543802   -2.6665452237   -0.1770542315
O        2.7855480222   -0.6647881498   -0.0503432564
H       -2.7773461457   -0.4892966314    0.1078176618
H        0.7263745797    1.1454959131    1.1629525946
H        2.7434780685   -3.0913052485   -0.2519772327
H        0.9787542993   -3.2310623975   -0.1715172264
