56

C      1.62278   -4.25397   -0.23019
C      2.23169   -3.12438    1.82155
C     -0.73152    4.43519   -5.36281
C      0.05196    3.40169   -5.87789
C      0.85500   -5.16907    0.49204
C      1.47020   -4.02648    2.55928
C      1.94252    4.12890   -4.52509
C      2.31946   -3.22196    0.42127
C     -0.18661    5.31449   -4.42310
C      1.14122    5.15369   -4.01431
C      1.38598    3.24414   -5.46185
C      0.79356   -5.03547    1.87581
C      3.15908   -2.21008   -0.30238
C     -0.81500    6.51166   -3.73864
C      1.52107    6.23124   -3.01876
C      0.14693    6.77471   -2.55194
C      4.37766   -1.45979   -2.39711
C      1.87152   -1.55232   -2.35897
C      4.30065   -1.39698   -3.92284
C      1.89113   -1.48825   -3.88676
C      3.16737   -2.20486   -1.82592
C      3.86200    0.65274   -6.26671
C      3.02737   -0.55453   -5.81913
C      3.40706    1.94583   -5.60618
N      3.06169   -0.75876   -4.36983
O      3.79783   -1.37667    0.33268
O      2.06147    2.19418   -6.02761
F      0.04954   -5.91832    2.58402
H      1.67190   -4.35997   -1.30837
H      2.77444   -2.32471    2.31524
H     -1.76283    4.54257   -5.69260
H     -0.34833    2.69764   -6.60198
H      0.31244   -5.97236    0.00341
H      1.39242   -3.96263    3.64032
H      2.96949    4.02350   -4.19205
H     -0.83896    7.37344   -4.42018
H     -1.84530    6.33242   -3.41361
H      2.13351    5.85752   -2.19154
H      2.10318    7.01676   -3.52034
H      0.18336    7.82744   -2.25688
H     -0.18939    6.19822   -1.68324
H      5.30551   -1.95639   -2.09360
H      4.40495   -0.44703   -1.98686
H      1.79643   -0.53502   -1.95928
H      0.98592   -2.10355   -2.02662
H      5.15163   -0.82396   -4.30228
H      4.39046   -2.41947   -4.34540
H      1.85700   -2.51940   -4.29642
H      0.99353   -0.97038   -4.23931
H      3.19639   -3.24114   -2.18694
H      4.92315    0.50566   -6.03619
H      3.78601    0.75129   -7.35562
H      1.98938   -0.36989   -6.10816
H      3.35809   -1.45772   -6.36532
H      3.44108    1.83597   -4.51657
H      4.04963    2.78529   -5.90449
