49

C     -6.97538    2.15774    3.06578
C     -6.29526   -0.95206    2.28934
C     -7.78897    2.82672    4.16434
C     -7.13786    2.34064    5.46739
C     -6.43717    1.01269    5.07981
C     -9.60224   -6.47183    1.70221
C     -9.47728   -3.98278    1.54239
C     -6.67465   -6.97821    3.64377
C     -5.35333   -6.62949    1.50210
C     -5.47007    0.22697    2.83946
C     -6.18326   -3.20450    1.29771
C     -6.67336   -4.13029    2.42322
C     -8.85112   -5.22699    2.19196
C     -6.74105   -6.58068    2.15563
C     -7.25197   -0.20991    5.51917
N     -6.25805    1.12616    3.64676
N     -5.55115   -1.99170    1.81800
N     -7.40183   -5.28750    1.89120
O     -6.92350    2.45886    1.88409
O     -7.52027   -0.92131    2.24659
F     -7.31599   -0.24433    6.87896
F     -8.51361   -0.20555    5.05541
F     -6.66288   -1.37016    5.13034
H     -7.77589    3.91035    4.03868
H     -8.82392    2.48512    4.06676
H     -6.37487    3.04878    5.79966
H     -7.84441    2.20422    6.28695
H     -5.47010    0.90206    5.58473
H     -9.39670   -6.65436    0.64133
H     -9.35287   -7.37515    2.26561
H    -10.67856   -6.30852    1.81343
H     -9.38532   -4.04415    0.45199
H     -9.01990   -3.04748    1.87238
H    -10.54198   -3.93180    1.79443
H     -6.04929   -6.28835    4.22102
H     -7.67019   -6.98502    4.09866
H     -6.24900   -7.98180    3.75543
H     -4.64129   -5.94875    1.98148
H     -5.42297   -6.36482    0.44261
H     -4.93675   -7.63935    1.58023
H     -4.61102   -0.13035    3.41733
H     -5.09762    0.79910    1.98352
H     -7.02507   -2.90686    0.67227
H     -5.46327   -3.72707    0.66282
H     -5.80800   -4.44579    3.01583
H     -7.29928   -3.54615    3.10544
H     -9.00904   -5.14777    3.28439
H     -7.33690   -7.33639    1.63992
H     -4.55402   -1.99418    1.98674
