46

C     -3.85275    3.35271   -3.23569
C     -2.57931    3.89481   -3.03354
C     -4.03578    1.96898   -3.13741
C     -1.50155    3.05954   -2.72625
C     -2.95491    1.13879   -2.82910
C     -1.67617    1.67229   -2.61184
C     -0.50101    1.89401    0.03042
C     -1.56815   -0.44322   -0.15356
C     -0.87818   -1.00411    1.08339
C     -0.49054    0.51574   -0.66851
C     -3.40305    3.87759    0.91666
C      1.29048   -2.21025    2.67193
C      2.90003   -1.42871    0.91248
C      1.67420    0.26475    2.31111
C     -0.52389    0.78757   -2.19222
C     -1.91022    3.60703    0.90065
C      1.57837   -1.11417    1.63174
N      0.49831   -1.21763    0.61447
O      0.46992    2.62037    0.10045
O      0.73814   -0.15325   -0.39366
O     -1.73055    2.23334    0.46658
H     -4.69213    4.00014   -3.47621
H     -2.42439    4.96769   -3.11756
H     -5.01967    1.53728   -3.30352
H     -0.51545    3.48748   -2.56186
H     -3.10674    0.06430   -2.75491
H     -1.72101   -1.23685   -0.89042
H     -2.51694    0.04415    0.06020
H     -0.95835   -0.29038    1.91638
H     -1.29645   -1.96167    1.40198
H     -3.82329    3.74161   -0.08393
H     -3.91853    3.20428    1.60835
H     -3.58863    4.90816    1.23705
H      0.39806   -1.98837    3.26581
H      1.15241   -3.18027    2.18388
H      2.13535   -2.28979    3.36259
H      3.11295   -0.67488    0.15132
H      2.84243   -2.40599    0.42350
H      3.72769   -1.44173    1.62943
H      1.85358    1.04949    1.57408
H      0.76634    0.51532    2.87007
H      2.50279    0.26442    3.02707
H     -0.56440   -0.18593   -2.68945
H      0.42973    1.25430   -2.45270
H     -1.45196    3.72054    1.88791
H     -1.38294    4.26134    0.20300
