52

C     -6.01891   -1.00673   -3.30088
C     -5.00557   -0.49438   -4.11981
C     -5.71968   -1.97756   -2.34044
C     -3.69418   -0.94951   -3.97204
C     -4.40478   -2.42684   -2.18612
C     -2.20162    1.47485   -1.01980
C     -1.08698    3.25519    0.18332
C     -1.37108    0.53826   -0.37870
C     -3.38504   -1.91231   -2.99786
C     -0.26469    2.34292    0.84210
C     -0.41180    0.96996    0.54606
C     -2.04747    2.82582   -0.74398
C      3.55859   -1.49265    1.10463
C      2.99433   -0.62858   -0.02768
C      2.58477   -1.54199    2.28690
C      1.60359   -1.10894   -0.47303
C      1.20325   -2.03983    1.84622
C     -0.75923   -1.80849    0.30110
C     -1.55661   -0.92645   -0.65548
C      0.60395   -1.21653    0.69872
C      0.76161    2.78356    1.85300
C     -1.95681   -2.33822   -2.80145
N     -1.17015   -1.21873   -2.12595
O      0.39175    0.11272    1.24163
Cl    -3.06998    3.99888   -1.54108
H     -7.04017   -0.65662   -3.41923
H     -5.23913    0.24797   -4.87719
H     -6.50703   -2.38485   -1.71315
H     -2.91830   -0.56617   -4.63408
H     -4.17788   -3.18601   -1.44059
H     -2.98306    1.14475   -1.70190
H     -0.98569    4.31604    0.39167
H      4.52735   -1.09748    1.42604
H      3.74189   -2.51065    0.73444
H      2.91557    0.41115    0.30829
H      3.66693   -0.63209   -0.89155
H      2.96801   -2.19975    3.07326
H      2.48595   -0.54412    2.72760
H      1.23072   -0.40207   -1.22649
H      1.69414   -2.09925   -0.94364
H      1.27927   -3.08132    1.50799
H      0.50170   -2.02407    2.68679
H     -1.35888   -1.91484    1.21026
H     -0.62631   -2.81837   -0.10209
H     -2.61687   -1.18070   -0.61727
H      0.53725    2.36946    2.84123
H      1.75927    2.42595    1.57999
H      0.79134    3.87187    1.93225
H     -1.86435   -3.21824   -2.16358
H     -1.44613   -2.53539   -3.74754
H     -1.31999   -0.35346   -2.65793
H     -0.16342   -1.41128   -2.16714
