57

C      0.82653    1.97187    0.06062
C     -1.39284    1.16432   -0.50806
C     -0.55801   -8.96945    7.79002
C     -0.21696   -7.93195    6.90575
C      0.42783    3.27821   -0.21111
C     -1.80397    2.46048   -0.79025
C      0.78332   -6.69242    8.75203
C     -0.07484    0.89793   -0.08085
C     -0.22787   -8.87111    9.13660
C      0.44350   -7.73004    9.61191
C      0.45000   -6.80359    7.39436
C     -0.88237    3.49807   -0.63440
C      0.28132   -0.50878    0.21361
C     -0.49705   -9.83642   10.27279
C      0.67616   -7.84170   11.10419
C      0.47808   -9.35418   11.37627
C      2.15312   -2.25463    0.23518
C      1.74721   -0.77997    2.23212
C      1.43637   -3.40559    0.93536
C      0.96005   -1.90991    2.88832
C      1.69825   -0.85566    0.69010
C      1.07545   -4.48642    4.62401
C      0.78775   -4.41824    3.12839
C      0.53725   -5.78668    5.22363
N      1.48815   -3.26079    2.44630
O     -0.55757   -1.41031    0.14071
O      0.83407   -5.72843    6.60216
F     -1.27157    4.75501   -0.90254
H      1.84856    1.80979    0.38623
H     -2.08210    0.33346   -0.61594
H     -1.07428   -9.84632    7.40635
H     -0.47349   -8.02814    5.85636
H      1.10703    4.11813   -0.10677
H     -2.81210    2.68288   -1.12545
H      1.30501   -5.80391    9.09832
H     -1.53951   -9.74444   10.60575
H     -0.33996  -10.88315    9.99530
H      1.65944   -7.47589   11.41537
H     -0.07411   -7.24601   11.64119
H      0.11274   -9.55899   12.38578
H      1.43745   -9.86933   11.25971
H      3.23430   -2.33968    0.40212
H      1.99209   -2.38062   -0.83898
H      1.33682    0.16693    2.59510
H      2.79209   -0.81450    2.56651
H      0.38225   -3.43165    0.66586
H      1.90382   -4.36418    0.69914
H      1.04341   -1.86710    3.97383
H     -0.09412   -1.89099    2.60680
H      2.41119   -0.13341    0.29011
H      0.61546   -3.65311    5.16098
H      2.15615   -4.44658    4.80901
H     -0.27711   -4.30225    2.91385
H      1.13913   -5.32220    2.62416
H      1.01938   -6.65650    4.75383
H     -0.54699   -5.86761    5.05688
H      2.47502   -3.30112    2.72522
