56

C     -0.16539   -5.22468    7.58093
C      4.41653   -7.79286   -0.43623
C      1.23317   -5.25686    7.64330
C     -0.79642   -5.09503    6.34094
C      3.39997   -8.64275    0.01656
C      4.42156   -6.45291   -0.03982
C      0.44291   -1.45877    2.13267
C      0.13724   -2.69533    0.10738
C      1.98786   -5.15971    6.47223
C     -0.03694   -4.99586    5.16947
C      2.39935   -8.15039    0.85728
C      3.41667   -5.96263    0.80193
C      0.91052   -2.60057    2.77618
C      0.61681   -3.84865    0.72952
C      0.04205   -1.47181    0.78536
C      1.36050   -5.02618    5.22494
C      2.39662   -6.80566    1.25563
C      1.01295   -3.83087    2.08457
C      1.71726    0.42232   -1.15688
C     -2.30086    0.75762   -0.54736
C     -1.64786    0.52038    0.84030
C     -1.35648   -0.32157   -1.14242
C     -0.45318   -0.20108    0.12715
C      2.21432   -4.90738    3.96833
C      1.27785   -6.29655    2.15578
C      0.69340    0.81747   -0.09956
N      1.48526   -4.97363    2.71558
O      1.93573    1.07917   -2.15203
O      2.41932   -0.72078   -0.92803
H     -0.75509   -5.30178    8.49069
H      5.19656   -8.17358   -1.09036
H      1.73349   -5.36113    8.60280
H     -1.88173   -5.06887    6.28274
H      3.38980   -9.68778   -0.28288
H      5.20537   -5.78492   -0.38779
H      0.36789   -0.53572    2.70424
H     -0.13443   -2.75186   -0.94302
H      3.07495   -5.19018    6.52741
H     -0.53099   -4.89127    4.20806
H      1.61412   -8.81775    1.20922
H      3.42357   -4.91988    1.10500
H      1.16244   -2.54305    3.82937
H      0.71720   -4.75443    0.14191
H     -2.09696    1.75574   -0.94371
H     -3.37424    0.56726   -0.62373
H     -1.40439    1.39875    1.44693
H     -2.22144   -0.18308    1.44989
H     -1.84918   -1.29562   -1.19501
H     -0.88625   -0.10956   -2.10666
H      2.78910   -3.97542    4.00036
H      2.95992   -5.71088    3.96526
H      0.32984   -6.30694    1.60710
H      1.14230   -6.99620    2.98874
H      0.28435    1.77602   -0.42406
H      1.21517    0.98266    0.85110
H      2.04509   -1.18714   -0.15519
