50

C     -9.75980    4.51076    8.37186
C     -7.82560   -0.05593    2.05142
C     -8.77667    5.11658    9.12169
C     -8.49044    0.78870    2.94685
C     -6.63349   -0.68119    2.42266
C     -9.43870    3.64856    7.29531
C     -5.04623    5.17135    9.18756
C     -6.79014    0.34315    4.60363
C     -4.81491    4.29304    8.10117
C     -7.40575    4.87893    8.82203
C     -7.97373    0.99042    4.23043
C     -6.10391   -0.47828    3.70486
C     -6.33870    5.47686    9.56460
C     -7.05858    4.00866    7.74007
C     -8.11440    3.39659    6.97624
C     -6.61746    6.40697   10.71761
C     -2.35020    3.30666    5.26376
C     -8.69099    1.87795    5.21672
C     -2.39510    2.07685    4.35007
C     -3.58312    1.15914    4.66130
C     -3.60127   -0.10633    3.79771
C     -4.76640   -1.07084    4.09534
N     -5.77177    3.72456    7.39386
O     -4.60195   -2.30160    3.37419
O     -7.70430    2.59451    5.96340
H    -10.80679    4.69199    8.60086
H     -8.23322   -0.21584    1.05629
H     -9.04761    5.77431    9.94059
H     -9.40595    1.29200    2.64216
H     -6.11122   -1.33375    1.73071
H    -10.24226    3.19632    6.72614
H     -4.19826    5.59842    9.71726
H     -6.39183    0.51419    5.59965
H     -3.79207    4.05708    7.80966
H     -7.19714    7.27848   10.39384
H     -7.19612    5.90576   11.50143
H     -5.68628    6.76631   11.16216
H     -2.21328    3.00708    6.30962
H     -1.52452    3.97567    4.99723
H     -3.28461    3.87485    5.20422
H     -9.35429    2.57830    4.69306
H     -9.30324    1.28035    5.90734
H     -2.45445    2.39892    3.30217
H     -1.45661    1.51386    4.44499
H     -4.51170    1.72252    4.52624
H     -3.55385    0.87675    5.72288
H     -2.66066   -0.65533    3.95951
H     -3.63588    0.15660    2.73336
H     -4.77756   -1.27916    5.17614
H     -3.69143   -2.60433    3.51557
