19

C      1.86614   -1.01442   -0.17240
C      2.80171   -1.79337    0.51541
C      0.90068   -0.30041    0.54860
C      2.77265   -1.85800    1.91024
C      0.86892   -0.36266    1.94068
C      1.15227   -0.85318    6.15982
C      2.23737   -1.70221    6.21697
C      1.80660   -1.14394    2.64130
C      1.74158   -1.18435    4.10435
N      0.85450   -0.53992    4.85516
N      2.60308   -1.90550    4.90002
H      1.88888   -0.96428   -1.25776
H      3.55542   -2.35192   -0.03356
H      0.16972    0.30749    0.02153
H      3.51321   -2.47289    2.41707
H      0.12559    0.18620    2.50974
H      0.57481   -0.45487    6.98411
H      2.76382   -2.16345    7.04027
H      3.37145   -2.48197    4.58689
