23

C     -1.75384   -1.31939   -0.12822
C     -0.38802   -1.03355   -0.03431
C     -2.17624   -2.64837   -0.17019
C      0.54193   -2.07619    0.00749
C     -1.24766   -3.69527   -0.09621
C      0.13466   -3.41647   -0.02197
C     -1.79562   -5.09577   -0.13781
C      1.15983   -4.53014   -0.02205
C      1.17150   -5.36360    1.27489
C     -0.25212   -5.69111    1.74857
N     -1.15413   -6.02753    0.64412
O     -2.77244   -5.39442   -0.82709
H     -2.48144   -0.51353   -0.17484
H     -0.04607   -0.00197   -0.00626
H     -3.22884   -2.89764   -0.26486
H      1.60453   -1.84729    0.05244
H      0.94985   -5.20295   -0.85994
H      2.15637   -4.11366   -0.19620
H      1.73700   -6.28499    1.09524
H      1.68333   -4.81752    2.07611
H     -0.23940   -6.53857    2.43880
H     -0.66024   -4.83773    2.30020
H     -1.60752   -6.93381    0.64230
