26

C      1.55189   -1.03846   -0.21612
C      0.44818   -0.50856    0.46218
C      2.60928   -1.59195    0.50717
C      0.41800   -0.50802    1.85847
C      4.90173   -3.47612    3.90657
C      5.66840   -2.47814    3.25576
C      2.57387   -1.61188    1.90459
C      1.48438   -1.04292    2.58795
C      3.59913   -3.27757    3.47327
C      2.34145   -4.02994    3.77083
C      2.36817   -0.16638    4.61221
N      4.91638   -1.70611    2.47277
N      3.65009   -2.20332    2.62100
O      1.41382   -1.02877    3.96347
H      1.58488   -1.02943   -1.30184
H     -0.38422   -0.08666   -0.09468
H      3.47329   -2.01781    0.00640
H     -0.41887   -0.08566    2.40717
H      5.24381   -4.24659    4.58468
H      6.73302   -2.28841    3.32334
H      1.65726   -3.43511    4.38249
H      1.81358   -4.29719    2.84933
H      2.58306   -4.95100    4.30602
H      2.16811   -0.25063    5.68168
H      2.21982    0.87060    4.28873
H      3.39693   -0.47206    4.40338
