22

C      1.88657   -1.03593   -0.16536
C      1.66775   -1.14440    6.96265
C      2.87446   -1.70944    0.56090
C      0.85538   -0.38388    0.51909
C      0.48766   -1.24866    6.21865
C      2.89114   -1.01868    6.29593
C      2.83071   -1.73039    1.95666
C      0.81344   -0.40541    1.91490
C      0.53149   -1.22758    4.82289
C      2.93302   -0.99727    4.90012
C      1.79993   -1.07888    2.65712
C      1.75440   -1.10145    4.14011
H      1.91992   -1.01940   -1.25162
H      1.63440   -1.16094    8.04891
H      3.67517   -2.22787    0.03937
H      0.08767    0.15091   -0.03456
H     -0.46783   -1.35657    6.72589
H      3.81362   -0.92713    6.86386
H      3.58787   -2.28064    2.50886
H      0.02332    0.12851    2.43610
H     -0.38887   -1.33777    4.25564
H      3.88634   -0.87075    4.39399
