16

C      1.82312   -1.00258   -0.15716
C      0.76172   -0.43779    0.54873
C      2.88881   -1.61280    0.51930
C      0.76295   -0.48214    1.95013
C      2.90186   -1.66361    1.91916
C      1.82000   -1.08704    2.60963
C      4.98579   -2.81669    2.01186
O      3.87775   -2.22712    2.68592
F      1.82375   -1.13129    3.96359
H      1.83272   -0.97406   -1.24317
H     -0.06281    0.03441    0.02315
H      3.70341   -2.04547   -0.05041
H     -0.04409   -0.05427    2.53752
H      5.63868   -3.20097    2.79628
H      5.53079   -2.07492    1.41509
H      4.66616   -3.64392    1.36615
