27

C      1.90388   -0.93732   -0.09372
C      0.00956   -2.76968    8.76270
C      0.84560   -0.38506    0.63911
C      2.95227   -1.57238    0.57719
C     -0.69562   -3.44101    7.75405
C      0.96184   -1.81618    8.39639
C      0.84013   -0.46650    2.03312
C      2.94183   -1.65519    1.97482
C     -0.45690   -3.15934    6.41145
C      1.21673   -1.52965    7.05094
C      1.89042   -1.10145    2.71511
C      0.50326   -2.19550    6.03563
C      1.87303   -1.18747    4.22490
N      0.68535   -1.90638    4.67975
H      1.90916   -0.87255   -1.17878
H     -0.17940   -2.98981    9.80949
H      0.02761    0.11099    0.12268
H      3.77598   -2.00575    0.01566
H     -1.43974   -4.18937    8.01607
H      1.52340   -1.28790    9.16330
H      0.01772   -0.04141    2.60325
H      3.75792   -2.15460    2.49259
H     -1.01853   -3.68001    5.63788
H      1.96941   -0.78999    6.79958
H      2.80155   -1.65875    4.58376
H      1.84666   -0.17540    4.64685
H      0.43133   -2.67177    4.06551
