22

C      2.12512   -0.26577   -0.66974
C      0.83132    0.31961   -0.75475
C      3.19728    0.48445   -1.06746
C      0.63884    1.61217   -1.18015
C      1.76775    2.41684   -1.63141
C     -0.77517    2.11147   -1.33999
C     -2.41134    3.89157   -1.06570
C     -0.22841    4.10552    0.06812
N      3.00877    1.75707   -1.52007
N     -1.10182    3.31561   -0.78802
O      1.73277    3.56300   -2.08889
O     -1.59128    1.40541   -1.94473
H      2.26791   -1.27937   -0.31469
H     -0.04328   -0.26766   -0.48714
H      4.22057    0.12332   -1.05123
H     -3.01014    3.95321   -0.14813
H     -2.92964    3.26277   -1.78760
H     -2.29260    4.90224   -1.47422
H      0.21127    4.94681   -0.47667
H      0.57841    3.49132    0.46747
H     -0.81299    4.48485    0.91431
H      3.79757    2.30893   -1.84328
