27

C      1.89271   -1.12636   -0.39912
C     -1.94863   -4.15381    3.16006
C      2.22825   -2.25468    0.35571
C      1.61081    0.08213    0.24910
C     -1.93131   -2.95070    2.44600
C     -1.22671   -4.27852    4.35291
C      2.26473   -2.17970    1.75038
C      1.67271    0.17304    1.64110
C     -1.18945   -1.86461    2.91659
C     -0.47502   -3.20261    4.83182
C      1.99369   -0.96477    2.39419
C     -0.46676   -2.00972    4.10394
N      2.04293   -0.87541    3.81943
O      0.91863   -0.87989    6.06720
O     -0.01211    0.59121    4.18047
S      0.57082   -0.65751    4.66374
H      1.85496   -1.18665   -1.48339
H     -2.53094   -4.99375    2.79061
H      2.44666   -3.19787   -0.13791
H      1.35674    0.96452   -0.33225
H     -2.49718   -2.85492    1.52361
H     -1.25349   -5.20918    4.91297
H      2.49329   -3.06483    2.34020
H      1.46630    1.10615    2.15360
H     -1.17330   -0.92097    2.38199
H      0.08105   -3.27188    5.76181
H      2.55452   -1.63744    4.26168
