19

C      5.85918   -1.01763    6.31871
C      4.68665   -0.88779    7.07061
C      5.79613   -1.13024    4.92467
C      3.44316   -0.87868    6.43185
C      4.56003   -1.12257    4.27329
C      3.40031   -1.00366    5.04221
C      1.35871   -2.80388    4.33290
N      2.07984   -0.55068    2.82448
O      0.79240   -0.37674    5.16972
S      1.77985   -1.02503    4.26872
H      6.82430   -1.02228    6.81847
H      4.73868   -0.78440    8.15090
H      6.70982   -1.21608    4.34289
H      2.52074   -0.75230    6.99106
H      4.48189   -1.18145    3.19306
H      0.38205   -2.90768    3.85369
H      2.11851   -3.36375    3.78582
H      1.30125   -3.12189    5.37518
H      1.21994   -0.50680    2.27334
