25

C     -3.35928   -3.05010   -1.59040
C     -3.46709   -2.66310   -0.25223
C     -2.15278   -2.84618   -2.27201
C     -2.37496   -2.07631    0.39839
C     -1.06731   -2.26014   -1.61880
C     -1.16308   -1.86524   -0.27308
C      1.23585   -2.18291    0.55451
C      0.44567    0.09826   -0.20430
C      1.97485   -4.51491    0.83891
C      0.02280   -1.23367    0.43291
N      0.93320   -3.50310    0.72942
O      2.39384   -1.76644    0.56299
H     -4.20469   -3.50628   -2.09879
H     -4.39879   -2.81613    0.28654
H     -2.05918   -3.14635   -3.31269
H     -2.46629   -1.77820    1.44088
H     -0.13254   -2.11424   -2.15526
H      0.76461   -0.04257   -1.24082
H     -0.39436    0.79917   -0.19604
H      1.28447    0.53011    0.34468
H      2.39816   -4.77452   -0.13930
H      1.55401   -5.41358    1.29649
H      2.78111   -4.13337    1.46761
H     -0.27610   -1.03026    1.46923
H     -0.01773   -3.79973    0.55404
