18

C      1.54751    0.37445    1.55349
C      1.41030    0.46841    2.92952
C      0.30898   -0.11470    1.04475
C     -0.55281   -0.32300    2.11911
C     -1.92536   -0.84019    2.16356
C     -3.62053   -1.97429    3.52380
N      0.16619    0.01445    3.27196
N     -2.30519   -1.34795    3.40785
O     -2.70245   -0.79502    1.21222
O      0.00015   -0.39158   -0.25334
H      2.43595    0.61706    0.98292
H      2.10300    0.83345    3.67556
H     -3.81494   -2.19483    4.57662
H     -3.69809   -2.89735    2.93587
H     -4.37865   -1.27999    3.15899
H     -0.28540    0.20474    4.15655
H     -1.56208   -1.80091    3.92789
H      0.78448   -0.21947   -0.79652
