30

C     -0.01794   -1.36410    1.17186
C      0.94373   -6.34003    4.63711
C      0.54673   -0.83155    0.00499
C      1.83469   -5.57554    5.39697
C      0.24797   -2.68480    1.51631
C      0.82422   -6.10323    3.26803
C      1.33926   -1.63066   -0.81334
C      2.60856   -4.58866    4.78248
C      1.05355   -3.50923    0.70918
C      1.57291   -5.10049    2.63109
C      1.59034   -2.97283   -0.48173
C      2.47348   -4.35799    3.41170
C      1.37583   -4.88481    1.16335
C      2.27147   -5.03159   -1.73236
C      1.16499   -5.78864   -1.00678
N      1.44907   -5.92709    0.41550
N      2.44126   -3.71826   -1.31794
O      2.96574   -5.51168   -2.61567
Cl     3.52261   -3.15186    2.67868
H     -0.64567   -0.74842    1.80936
H      0.34783   -7.11661    5.10828
H      0.36353    0.20366   -0.26986
H      1.93896   -5.74980    6.46444
H     -0.15629   -3.09436    2.43727
H      0.14545   -6.69378    2.66044
H      1.76874   -1.22205   -1.72514
H      3.32319   -4.00610    5.35511
H      0.21642   -5.25705   -1.17951
H      1.10564   -6.77845   -1.45827
H      3.08166   -3.19630   -1.90799
