24

C      3.15849    3.07801   -4.34812
C      4.32834    3.31355   -3.63417
C      2.17690    2.72348   -3.39005
C      2.75714    2.75945   -2.11887
C      2.26709    2.30133   -0.80264
C      5.09688    3.26877   -1.25977
C      0.41105    1.91658    0.71364
C      0.12669    3.58209   -1.08006
N      4.09490    3.11203   -2.30830
N      0.94973    2.53413   -0.49089
O      3.02158    1.69413   -0.02455
O      0.87126    2.36782   -3.62784
H      3.03633    3.14962   -5.42195
H      5.30329    3.62430   -3.98489
H      4.73541    3.94865   -0.48447
H      5.32034    2.30795   -0.79532
H      5.99682    3.69116   -1.71176
H      0.45008    2.60475    1.56959
H      0.99437    1.03000    0.95827
H     -0.63328    1.63695    0.53785
H     -0.73885    3.16135   -1.60211
H      0.70536    4.16921   -1.79059
H     -0.22953    4.25111   -0.28541
H      0.75161    2.28873   -4.58643
