27

C      1.40865   -1.61610    0.11046
C      3.79951   -6.11889    2.11908
C      0.57717   -0.69005    0.74530
C      5.15556   -6.42151    1.95388
C      2.47243   -2.17109    0.82010
C      3.40846   -4.80072    2.35768
C      0.82597   -0.32197    2.07054
C      6.11594   -5.40929    2.03321
C      2.73628   -1.79583    2.15006
C      4.35431   -3.76680    2.45908
C      1.90580   -0.84556    2.79487
C      5.70249   -4.10654    2.29315
C      3.93432   -2.37142    2.83613
C      2.12617   -0.38695    4.21729
O      4.55578   -1.75654    3.69548
F      6.64658   -3.14234    2.34314
H      1.22897   -1.90503   -0.92143
H      3.05184   -6.90447    2.05953
H     -0.26494   -0.25502    0.21279
H      5.46890   -7.44345    1.75881
H      3.12115   -2.89272    0.33322
H      2.35631   -4.56113    2.48163
H      0.16767    0.39442    2.55632
H      7.17386   -5.61177    1.89680
H      2.32667   -1.22350    4.89161
H      2.99552    0.27258    4.28375
H      1.24675    0.15286    4.57958
