18

C      0.53317    1.30397   -1.61779
C      0.28699    1.73329   -2.95416
C     -0.37153    0.51334   -0.96290
C     -0.87211    1.32779   -3.55642
C     -1.61116    0.08790   -1.58256
C     -4.18662    1.09027   -3.23803
C     -3.03272    0.15255   -3.59572
N     -1.78249    0.53310   -2.91902
O     -2.48278   -0.60425   -1.04279
H      1.44894    1.60868   -1.11619
H      0.98850    2.35852   -3.49405
H     -0.21116    0.17332    0.05477
H     -1.12598    1.61292   -4.57290
H     -4.37566    1.06118   -2.16258
H     -3.96145    2.12143   -3.53029
H     -5.09785    0.77665   -3.75786
H     -2.84078    0.15552   -4.67222
H     -3.26732   -0.86734   -3.28768
