19   

C        5.6932772922    1.6990733979    0.7935231953
C        4.4442750660    1.8920243783    0.2900664239
C        5.3732873779    0.0755162514   -0.6115990430
C        4.9166906812   -1.4365495204   -2.4760919078
C        4.0966735494   -0.4280633342   -3.2747157719
C        6.6450786522   -2.0267173641   -0.8312933628
N        6.2428208768    0.5563390954    0.2389854148
N        4.2237586959    0.8636257382   -0.6134495947
N        5.6143152192   -1.1089326371   -1.3224836136
O        4.9361914834   -2.5756203117   -2.9329356719
H        6.1784193064    2.3388099291    1.5216244275
H        3.7666042324    2.6903884036    0.5699165136
H        3.9493878611   -0.7737999700   -4.3016890070
H        4.5022832881    0.5838570844   -3.2003392759
H        3.0979252862   -0.3905175255   -2.8344159767
H        6.3421510154   -2.3835049884    0.1582725213
H        7.5566677011   -1.4797471154   -0.5704659196
H        6.8445279070   -2.8758060114   -1.4926122544
H        3.3803507344    0.6736299164   -1.1416140099
19   

C        5.5840389768    1.8673843268    0.8674292360
C        4.3114201124    1.9506079801    0.3921930430
C        5.3624324283    0.1998571563   -0.5022440921
C        4.8780776198   -1.4233730131   -2.2495734966
C        4.0634817680   -0.4794998474   -3.1279052987
C        6.7439689031   -1.8383049363   -0.7034109797
N        6.2123594642    0.7646255420    0.3152763138
N        4.1524563548    0.8917625850   -0.4890137402
N        5.6782826483   -0.9723307117   -1.2065249782
O        4.7801427372   -2.6183592180   -2.5110049425
H        6.0329408538    2.5555779439    1.5744009904
H        3.5784377276    2.6974529561    0.6750149519
H        3.9995169215   -0.8815679881   -4.1427461912
H        4.4106846276    0.5557149930   -3.0838366048
H        3.0248840151   -0.5261666703   -2.7924535154
H        6.3872520260   -2.2958620646    0.2250274550
H        7.6029769798   -1.2596606360   -0.3495148832
H        7.0120623231   -2.6433212726   -1.3952121955
H        3.3157179494    0.6263272368   -0.9954885698
19   

C        5.5880755069    1.8986896200    0.8615899598
C        4.2963184068    1.9088597417    0.4314624734
C        5.4151098978    0.2256854549   -0.5053914305
C        4.8711577468   -1.4411266316   -2.1636188214
C        4.0916275130   -0.5355128734   -3.1103189000
C        6.8454348653   -1.7758578169   -0.7223722447
N        6.2609526031    0.8369399595    0.2817074685
N        4.1675643119    0.8449690674   -0.4487450735
N        5.7751718560   -0.9236080095   -1.2311708678
O        4.6331686674   -2.6415839076   -2.2340100888
H        6.0204441257    2.6096067887    1.5563133466
H        3.5314630727    2.6109928632    0.7429917447
H        4.1290005063   -0.9674671906   -4.1139723301
H        4.4181735956    0.5072942757   -3.0878840371
H        3.0262236293   -0.6391315857   -2.8911388034
H        6.4916179465   -2.2314653719    0.2083608035
H        7.7055350051   -1.1887175330   -0.3854391719
H        7.1027889325   -2.5886442854   -1.4091046417
H        3.3306947108    0.5322333452   -0.9279501660
19   

C        5.5870947193    1.8282881555    0.8926600487
C        4.2797889570    1.8748154808    0.5136308946
C        5.3471178713    0.2494919533   -0.5699617350
C        4.6429329038   -1.3052398148   -2.2444158041
C        3.9663562951   -0.3481848203   -3.2174820729
C        6.6817378002   -1.7900104640   -0.9227508140
N        6.2291421123    0.8025018953    0.2199903374
N        4.1079320309    0.8717826739   -0.4286286427
N        5.6677691131   -0.8520849436   -1.3887237520
O        4.1975095308   -2.4435198834   -2.1805191631
H        6.0512173480    2.4897100713    1.6152148503
H        3.5332736741    2.5593940421    0.8997064221
H        4.0941954635   -0.7582068650   -4.2226799412
H        4.3523801498    0.6732042465   -3.1648780006
H        2.8812997505   -0.4239776006   -3.1121547265
H        6.3178821004   -2.2430020424    0.0056006883
H        7.5904679124   -1.2710434307   -0.6017489112
H        6.8619210644   -2.5997243183   -1.6369560531
H        3.2508498190    0.5941218779   -0.8942376809
19   

C        5.6169284842    1.8367726670    0.8638769091
C        4.2928396381    1.8413250739    0.5437618136
C        5.3603596102    0.2449684055   -0.5795970216
C        4.5605545391   -1.3186584418   -2.1670368232
C        3.9586258571   -0.4345812448   -3.2497170614
C        6.6709147480   -1.7996702741   -0.9348506004
N        6.2605135163    0.8281342906    0.1667328591
N        4.1097885825    0.8295713103   -0.3870791748
N        5.6770593074   -0.8496166292   -1.4150290401
O        3.9705948559   -2.3516530787   -1.8858742668
H        6.0918069772    2.5155162645    1.5629790709
H        3.5431089410    2.5030090321    0.9620472544
H        4.2594573540   -0.8658785872   -4.2078668047
H        4.3367584860    0.5907504472   -3.2212651299
H        2.8707930111   -0.5366832114   -3.2766620752
H        6.3059059022   -2.2251385435    0.0061649119
H        7.5984490750   -1.2950080844   -0.6463078652
H        6.8198465360   -2.6290414894   -1.6332754192
H        3.2417708257    0.5186917104   -0.8105810556
19   

C        5.3806210316    1.5835998431    0.9276682149
C        4.0299340836    1.5967088971    0.7379685118
C        4.9345603535   -0.1842832973   -0.2290727010
C        4.0964539167   -1.4620856498   -2.0321278832
C        4.5362328923   -1.1923654302   -3.4620609842
C        6.3987346341   -1.8956114650   -1.1566188036
N        5.9274261916    0.4622928451    0.3233422791
N        3.7275783979    0.4660307261   -0.0070002306
N        5.0462206217   -1.3963375084   -0.9376130915
O        2.9913703967   -1.9307127146   -1.8440063064
H        5.9416766825    2.3343990124    1.4724204369
H        3.3419476137    2.3434154480    1.1174055880
H        5.1751268191   -2.0190768231   -3.7806168633
H        5.2096464126   -0.3318275630   -3.4952018378
H        3.6829486016   -1.1331779281   -4.1429747501
H        6.9322542218   -1.9997654418   -0.2059921872
H        6.9723805250   -1.1381015702   -1.7015938928
H        6.4050850387   -2.8128141452   -1.7535992601
H        2.8226125525    0.1142280055   -0.3125489085
19   

C        5.4550881750    1.6995037291    1.1007641220
C        4.1059315359    1.7455162943    0.9055062842
C        4.9817401502   -0.0178923634   -0.1203545616
C        4.0961799830   -1.3096867484   -1.9090743072
C        4.4989502116   -1.3978242524   -3.3733599249
C        6.4276697171   -1.7191963141   -1.1087751237
N        5.9839980244    0.5901964784    0.4590557299
N        3.7874324927    0.6477050992    0.1195428591
N        5.0813666212   -1.2066627918   -0.8747583365
O        2.9405227524   -1.5771159500   -1.6213254392
H        6.0275944553    2.4195140656    1.6743835403
H        3.4296305958    2.4916459308    1.3062262685
H        4.9660416241   -2.3714316365   -3.5376696768
H        5.3008386121   -0.6883710382   -3.5934026990
H        3.6306259113   -1.3241878175   -4.0336102559
H        6.9817512794   -1.8047173917   -0.1680067563
H        6.9924009988   -0.9711811671   -1.6756314567
H        6.4255662959   -2.6450790174   -1.6917063972
H        2.8808415884    0.3194777002   -0.2093529637
19   

C        5.4762394961    1.6634945708    1.2578079769
C        4.1333588354    1.7512227704    1.0371698213
C        4.9988616880    0.0445760554   -0.0923241671
C        4.1121311346   -1.2190488885   -1.9218711512
C        4.4692412654   -1.5534404804   -3.3632904249
C        6.4534869969   -1.6113395862   -1.1599799434
N        5.9985341574    0.5914418974    0.5504373884
N        3.8139292553    0.7177031850    0.1691999203
N        5.1095229229   -1.0878165116   -0.9286517277
O        2.9308420519   -1.3103564484   -1.6040316861
H        6.0491906739    2.3294599814    1.8929507220
H        3.4617002294    2.4818752998    1.4724985617
H        4.7755998194   -2.6015656811   -3.3967777110
H        5.3597650751   -1.0064345453   -3.6830617849
H        3.6050005098   -1.4444890431   -4.0240486747
H        6.9995133944   -1.7209959760   -0.2169680376
H        7.0309791164   -0.8497497389   -1.6949585699
H        6.4581839310   -2.5199459407   -1.7690058990
H        2.9123283586    0.4290213262   -0.2088972593
19   

C        5.4768832972    1.5961617452    1.3806320696
C        4.1395220384    1.7181900164    1.1460974359
C        5.0035037291    0.0884007536   -0.0974115213
C        4.1268874998   -1.1481314393   -1.9718924009
C        4.4380811231   -1.6600001549   -3.3722244831
C        6.4770265139   -1.5041356180   -1.2420987515
N        5.9979241005    0.5744103011    0.6014890624
N        3.8242153996    0.7573348219    0.1973890209
N        5.1323807022   -0.9753308119   -1.0157764821
O        2.9373507385   -1.0866521317   -1.6585741076
H        6.0472095897    2.2044448204    2.0733698882
H        3.4689291169    2.4237356129    1.6223910256
H        4.6958023280   -2.7187031036   -3.2914035383
H        5.3493082127   -1.2008600081   -3.7637044887
H        3.5697700470   -1.5767916688   -4.0314230574
H        7.0151575256   -1.6339033797   -0.2970770916
H        7.0637273972   -0.7294918232   -1.7473681125
H        6.4945897772   -2.3968260794   -1.8734011628
H        2.9287564685    0.5100646518   -0.2234088640
19   

C        5.4666569037    1.5451771637    1.4634974509
C        4.1306710117    1.6814262127    1.2318208580
C        5.0025798761    0.1387882149   -0.1175211257
C        4.1332255639   -1.0898058520   -2.0166086406
C        4.3993651280   -1.7502285953   -3.3638652522
C        6.5008452516   -1.3796600514   -1.3313142571
N        5.9923728245    0.5802812294    0.6179377047
N        3.8224089051    0.7865080723    0.2188559576
N        5.1519447675   -0.8567666889   -1.1037988212
O        2.9480130095   -0.8983332830   -1.7273491415
H        6.0332437934    2.1052924590    2.1986248731
H        3.4567878563    2.3540414248    1.7492370149
H        4.6681567610   -2.7934134945   -3.1808622061
H        5.3001731736   -1.3390511822   -3.8262718779
H        3.5157253720   -1.7247637630   -4.0073137887
H        7.0350749515   -1.5262303648   -0.3865343404
H        7.0895022621   -0.5882943345   -1.8073505380
H        6.5367341160   -2.2568961375   -1.9824231660
H        2.9318343087    0.5705357033   -0.2292734477
19   

C        5.4583999073    1.5145505795    1.5655732776
C        4.1221679255    1.6536220350    1.3392365239
C        5.0128609120    0.2138161471   -0.1109250720
C        4.1515105607   -0.9993405249   -2.0336739426
C        4.3819785144   -1.7848310092   -3.3196569342
C        6.5366498070   -1.2206283347   -1.3932946335
N        5.9957327527    0.6161391842    0.6565452662
N        3.8263452812    0.8266677635    0.2667899475
N        5.1822652391   -0.7089122115   -1.1610748494
O        2.9780470428   -0.6921054229   -1.7921698050
H        6.0175921704    2.0279839409    2.3394306725
H        3.4405034311    2.2853518076    1.8964147832
H        4.6897708003   -2.7985748504   -3.0519244535
H        5.2581647413   -1.4016128141   -3.8485418790
H        3.4814585191   -1.8242242498   -3.9385820130
H        7.0711183128   -1.3815715690   -0.4510333911
H        7.1217961057   -0.4133854680   -1.8460899234
H        6.5904638787   -2.0829467341   -2.0620446319
H        2.9414513974    0.6392050036   -0.2051382757
19   

C        5.4752871388    1.2645205043    1.7897986280
C        4.1454601074    1.4152086470    1.5378962808
C        5.0971971470    0.1444168325   -0.0302803070
C        4.2625541102   -0.9875234416   -2.0191965860
C        4.4823915376   -1.8646424694   -3.2477384674
C        6.6528724494   -1.1580563934   -1.4341764959
N        6.0497462533    0.4731552628    0.8073449185
N        3.8927713272    0.7026472011    0.3762266208
N        5.2977519809   -0.6613313039   -1.1682437690
O        3.1025830129   -0.5960474729   -1.8377541648
H        6.0050880224    1.6972366437    2.6307712896
H        3.4402188263    1.9810970918    2.1350166591
H        5.0188437039   -2.7741713716   -2.9676301722
H        5.1994886128   -1.3721387886   -3.9088084334
H        3.5461501050   -2.0731953860   -3.7726690137
H        7.4204497400   -0.7790253034   -0.7524274324
H        6.9268425362   -0.9853980161   -2.4789883336
H        6.6416357965   -2.2517026677   -1.3981838943
H        3.0257628120    0.5633132413   -0.1433825379
19   

C        5.3546167429    1.1771351120    1.8175174686
C        4.0209559813    1.3247910176    1.5816197018
C        4.9862431872    0.1951018818   -0.0800861869
C        4.1543070336   -0.9131748721   -2.0775427053
C        4.3421611775   -1.9011663477   -3.2231491051
C        6.5748888802   -0.9714767965   -1.5421658403
N        5.9389082724    0.4739210691    0.7752595844
N        3.7736952339    0.6982104072    0.3701029947
N        5.2061978404   -0.5191733798   -1.2733950754
O        3.0174366820   -0.4424698669   -1.9521385410
H        5.8802956571    1.5527557449    2.6879978834
H        3.3100927580    1.8350048938    2.2208009235
H        4.9351869853   -2.7579485194   -2.8937107386
H        4.9884558892   -1.4384869192   -3.9730285966
H        3.3885085507   -2.1805195712   -3.6792908841
H        7.3113250404   -0.2236200701   -1.2294145410
H        6.7459081671   -1.3325904607   -2.5590302948
H        6.7919553961   -1.7958259912   -0.8548398305
H        2.9084413130    0.5912865256   -0.1597990627
19   

C        5.3372458761    1.0753281005    1.8018466373
C        4.0036652827    1.2194594520    1.5612313718
C        5.0021074956    0.2158470596   -0.1582102332
C        4.1709624511   -0.8656190422   -2.1609692745
C        4.3414750343   -1.9600546878   -3.2075119308
C        6.6046469113   -0.8585523646   -1.6750581957
N        5.9431188213    0.4519743156    0.7216976482
N        3.7769182605    0.6701708735    0.3086847125
N        5.2372883385   -0.4140378111   -1.3967054875
O        3.0677007869   -0.3118116205   -2.1254978946
H        5.8481689282    1.3999589592    2.7011435055
H        3.2800001018    1.6798427894    2.2235047517
H        4.9638684505   -2.7715673651   -2.8222544789
H        4.9412754825   -1.5539767621   -4.0256230443
H        3.3788066876   -2.2877958615   -3.6091949558
H        7.3391692303   -0.1174364296   -1.3423132636
H        6.7671891792   -1.1880764698   -2.7045081258
H        6.8202306175   -1.7067843933   -1.0167192474
H        2.9196604747    0.5951126190   -0.2390951944
19   

C        5.3150381564    0.9817413039    1.8228498838
C        3.9836151839    1.1273772714    1.5688604375
C        5.0216269830    0.2491359760   -0.1919560992
C        4.1908817053   -0.8063693267   -2.1929669566
C        4.3483840440   -2.0072114056   -3.1165140390
C        6.6375839842   -0.7312807651   -1.7558736740
N        5.9466470884    0.4376616016    0.7148819155
N        3.7825387231    0.6583938067    0.2795568342
N        5.2720326134   -0.2919774950   -1.4709403050
O        3.1267624859   -0.1904223802   -2.2653429500
H        5.8068549666    1.2523781536    2.7502324564
H        3.2450088808    1.5391336683    2.2465500290
H        4.9823041312   -2.7717806457   -2.6604647678
H        4.9199335501   -1.6842887601   -3.9899327083
H        3.3794997898   -2.3725320038   -3.4675586152
H        7.3703329768    0.0046273074   -1.4080090387
H        6.7911505799   -1.0331317944   -2.7956105698
H        6.8516836430   -1.5996213979   -1.1236287515
H        2.9353205753    0.6186172537   -0.2867539656
19   

C        5.2695686540    0.8513629871    1.8372567496
C        3.9460759784    1.0214696110    1.5559363054
C        5.0321349936    0.2690784028   -0.2306364137
C        4.2096191696   -0.7350090991   -2.2420359946
C        4.3492540423   -2.0413723538   -3.0107706346
C        6.6650697671   -0.6170392257   -1.8262642185
N        5.9322862420    0.3869921761    0.7113673336
N        3.7795863116    0.6486159754    0.2304803299
N        5.3026255423   -0.1718376363   -1.5445324477
O        3.1997644851   -0.0703575430   -2.4500358144
H        5.7346794585    1.0517857769    2.7957409142
H        3.1904514217    1.3888925851    2.2404227264
H        4.9533425905   -2.7615113552   -2.4531174419
H        4.9384242709   -1.8390532474   -3.9082661247
H        3.3761932531   -2.4179201346   -3.3374937101
H        7.3986203219    0.1088489377   -1.4596170529
H        6.8161560935   -0.8906341197   -2.8745127370
H        6.8685065758   -1.5050725676   -1.2182078826
H        2.9477991805    0.6617375732   -0.3587001047
19   

C        5.2034586942    0.6960347267    1.7954617885
C        3.8914503100    0.9011104178    1.4839498385
C        5.0275299842    0.2598372261   -0.3124920045
C        4.2258887271   -0.7005713289   -2.3340042161
C        4.3333159205   -2.1166671548   -2.8792227843
C        6.6847427862   -0.5342073194   -1.9204808930
N        5.8982924695    0.3023732858    0.6621748531
N        3.7630518748    0.6220834018    0.1311670763
N        5.3228605458   -0.0853243407   -1.6489074038
O        3.2847938943   -0.0186872719   -2.7070836215
H        5.6386941308    0.8249345507    2.7799275914
H        3.1187381615    1.2319922642    2.1681299363
H        4.8241579208   -2.7700408671   -2.1533124156
H        5.0282021957   -2.1031081499   -3.7218515888
H        3.3686375178   -2.4814369032   -3.2420980099
H        7.4166688846    0.1802025285   -1.5289860494
H        6.8414038566   -0.7745596024   -2.9763022698
H        6.8744003477   -1.4443320642   -1.3412813208
H        2.9486071000    0.6917791883   -0.4768148168
19   

C        5.1706003473    0.5528124327    1.7597320322
C        3.8687491167    0.7941160210    1.4318951583
C        5.0420929564    0.2670736475   -0.3766954571
C        4.2682730954   -0.6372355837   -2.4185950805
C        4.2999981471   -2.1340547775   -2.6819196622
C        6.7241639611   -0.4222326666   -1.9982277681
N        5.8890236548    0.2318276705    0.6185294900
N        3.7695766776    0.6120790754    0.0600817108
N        5.3609683067    0.0182893626   -1.7258755264
O        3.4186085757    0.0309625802   -2.9735878693
H        5.5826201892    0.6078397903    2.7609583160
H        3.0837503669    1.0866610182    2.1196923282
H        4.6720731245   -2.6665896243   -1.8026752096
H        5.0677718293   -2.3276113949   -3.4343855274
H        3.3432989884   -2.4964831956   -3.0674232180
H        7.4501558036    0.2926139984   -1.5968442708
H        6.8798976956   -0.6402128714   -3.0593205423
H        6.9184637097   -1.3420418690   -1.4360151126
H        2.9677687554    0.7387065467   -0.5540468335
19   

C        4.9372967203    2.1303590578   -0.1062314854
C        4.7528435824    1.4230954234    1.0426409441
C        5.1177616214    0.0444428457   -0.6672679184
C        5.7124102520   -0.9309080220   -2.7453680323
C        4.7848509152   -0.2762319827   -3.7589639923
C        5.8039196239   -2.3112575482   -0.6872206731
N        5.1448347253    1.2561611687   -1.1588647717
N        4.8697055455    0.0831824603    0.7013872984
N        5.2667211792   -1.1554139043   -1.3916762686
O        6.8553095542   -1.1594481910   -3.0880408056
H        4.9193407397    3.2113498794   -0.1856869400
H        4.5488963850    1.8461644123    2.0194528372
H        4.5422014766   -1.0276134727   -4.5134532087
H        5.3380203105    0.4612061882   -4.3456248592
H        3.8637684193    0.1006479401   -3.3077004415
H        5.2358275534   -2.5355154741    0.2200381190
H        6.8075695019   -2.0545043325   -0.3301025940
H        5.9172676161   -3.1737620645   -1.3521424119
H        4.7722844049   -0.7280820300    1.3003247368
19   

C        4.8843858554    2.1400511794   -0.0517270689
C        4.7207925773    1.4589327815    1.1152566122
C        5.0646169944    0.0412093625   -0.5683748920
C        5.4870645023   -1.0393651131   -2.6408472350
C        4.5372505336   -0.2745082472   -3.5541858091
C        5.8080693162   -2.3129457749   -0.5410029418
N        5.0796208115    1.2420926279   -1.0865319465
N        4.8411437332    0.1123772348    0.8029280629
N        5.2177708303   -1.1844291132   -1.2487409941
O        6.5081482645   -1.4759734609   -3.1421967057
H        4.8613765990    3.2188557466   -0.1553854493
H        4.5278913431    1.9036608483    2.0846458216
H        4.4242428488   -0.8119323355   -4.4985701216
H        5.0523310969    0.6314539221   -3.8837049567
H        3.5930110555   -0.0203122633   -3.0662075885
H        5.3549107962   -2.4693141885    0.4417994148
H        6.8528727664   -2.0616087049   -0.3270140457
H        5.8343898666   -3.2139344127   -1.1627034936
H        4.7566007532   -0.6854885036    1.4214917511
19   

C        4.8505761093    2.1885757486   -0.0863223959
C        4.6919477227    1.5179613668    1.0868778536
C        5.1004929354    0.0890558059   -0.5739627735
C        5.4538992916   -1.0894995590   -2.6320257115
C        4.5419330607   -0.2484221537   -3.5188509331
C        5.8967871247   -2.2593889291   -0.5023780487
N        5.0876418355    1.2834607931   -1.1060767540
N        4.8595473090    0.1722959266    0.7937000273
N        5.3086192285   -1.1404011529   -1.2294830948
O        6.3332242986   -1.7188285557   -3.2004674808
H        4.7965186923    3.2647780920   -0.2041902996
H        4.4711010521    1.9688101107    2.0474171684
H        4.4058643953   -0.7270723742   -4.4915462743
H        5.0884921684    0.6636318946   -3.7721342581
H        3.6173947437    0.0422278536   -3.0138649780
H        5.5324177985   -2.3389986064    0.5253132494
H        6.9690662778   -2.0564578337   -0.4053324094
H        5.8376715343   -3.1925757645   -1.0722445361
H        4.7917878214   -0.6197312130    1.4217188814
19   

C        4.8598343443    2.0590581721   -0.1108310393
C        4.7266796765    1.4055484909    1.0744944928
C        5.1283740703   -0.0457872463   -0.5702605719
C        5.3302715215   -1.3329061938   -2.6057715207
C        4.4722821693   -0.4167788929   -3.4736706862
C        5.9154037663   -2.4055355378   -0.4669865236
N        5.0933549552    1.1403836417   -1.1191276127
N        4.9088387328    0.0580322000    0.7997400042
N        5.3461698136   -1.2820781450   -1.2054229724
O        6.0058386497   -2.1538158968   -3.2121138834
H        4.7908052734    3.1325119402   -0.2445216855
H        4.5124258945    1.8688067052    2.0305617062
H        4.2721286148   -0.8696436594   -4.4477581121
H        5.0688355177    0.4717853485   -3.6954427660
H        3.5879163799   -0.0561536897   -2.9427099746
H        5.7254030948   -2.3708382327    0.6088831218
H        7.0028467878   -2.3533107268   -0.5897507225
H        5.6675842886   -3.3627879755   -0.9373579457
H        4.8597436624   -0.7246225347    1.4410049555
19   

C        4.8018275574    2.0699153267   -0.0965170940
C        4.7283720805    1.4069074227    1.0880890063
C        5.1710860945   -0.0173801888   -0.5715104615
C        5.2698651203   -1.3650628407   -2.5941668755
C        4.4540066021   -0.4031343472   -3.4541086297
C        6.0243752251   -2.3555877542   -0.4790733957
N        5.0615505182    1.1675138013   -1.1129090152
N        4.9771593532    0.0722458407    0.8036104578
N        5.4409230143   -1.2360574258   -1.2158979676
O        5.7508643486   -2.3138429164   -3.2026253482
H        4.6738160350    3.1386654070   -0.2238547993
H        4.5084112775    1.8553067255    2.0498541651
H        4.2192485856   -0.8341153230   -4.4305050027
H        5.0658900534    0.4850779423   -3.6303305094
H        3.5865103283   -0.0204631741   -2.9111098889
H        5.9664379165   -2.2615771378    0.6083044783
H        7.0848113822   -2.4031947151   -0.7496466164
H        5.6636001901   -3.3157034250   -0.8625650595
H        4.9818783272   -0.7137836410    1.4424337587
19   

C        4.7752958519    2.0765455116   -0.0608758257
C        4.8547252624    1.4145683618    1.1232499705
C        5.3129645443    0.0337188568   -0.5690199481
C        5.3049960859   -1.3859416833   -2.5538607175
C        4.4885947321   -0.4226727156   -3.4122835701
C        6.3139384362   -2.2267870425   -0.4736198944
N        5.0466864680    1.1996950827   -1.0960806966
N        5.2152148702    0.1104408040    0.8172534999
N        5.6548370591   -1.1583545674   -1.2258278946
O        5.6045619103   -2.4281778991   -3.1261852755
H        4.5342776283    3.1271107637   -0.1741026987
H        4.6600451244    1.8439405080    2.0988776875
H        4.2211096329   -0.8597392984   -4.3775862923
H        5.0763525830    0.4852402088   -3.5684092480
H        3.6234358855   -0.0549471685   -2.8556166498
H        5.6698266972   -2.5361684460    0.3546113885
H        7.1685582810   -1.8140885895    0.0724500993
H        6.5944939997   -3.0970277213   -1.0759115806
H        5.3449478981   -0.6680373541    1.4516995682
