22   
Generated by ForceBalance from scan.xyz: Frame 1 of 15
C       -1.0905883830   -0.6872848851   -0.3336330807
C        0.4293914319   -0.5400911698   -0.2655959525
C        0.5475903593    0.7825982831    0.5373253045
C        1.0689646497   -1.7722278597    0.3829470589
C        0.9160748521   -0.4077078328   -1.7256342376
C        1.7380152913    1.6714350826    0.1943684266
C        0.4280324101    0.5945943952    2.0536907241
O       -1.7521551918   -1.6286783959   -0.6964850770
O       -1.6880649990    0.4981082881    0.0250134030
O       -0.6255497733    1.5071311116    0.0535309526
H        2.1543360408   -1.6422382232    0.4507147620
H        0.8680835783   -2.6545242643   -0.2300939279
H        0.6804053195   -1.9680016746    1.3842622290
H        2.0073448098   -0.3385876274   -1.7582480776
H        0.4936431984    0.4723147141   -2.2175047724
H        0.6123730914   -1.2929165049   -2.2906345520
H        1.7027042679    2.5907926312    0.7854968395
H        1.7533736271    1.9418936266   -0.8620572312
H        2.6676842719    1.1478754975    0.4376291620
H        0.3131270963    1.5735661989    2.5262215276
H        1.3237587979    0.1171635132    2.4603871780
H       -0.4395637432   -0.0136790984    2.3222248684
22   
Generated by ForceBalance from scan.xyz: Frame 2 of 15
C       -1.1130158674   -0.6730562628   -0.3690002763
C        0.4103624281   -0.5487050707   -0.2583442008
C        0.5385589748    0.7785513385    0.5442048595
C        1.0067496274   -1.7930836778    0.4141923308
C        0.9425068781   -0.4427018739   -1.7030859739
C        1.6968174066    1.6896020835    0.1524515809
C        0.4866200671    0.5949488274    2.0643853384
O       -1.7627652012   -1.5064744083   -0.9487847959
O       -1.7056807774    0.4478650910    0.1768672785
O       -0.6690762167    1.4814632543    0.1079185741
H        2.0925271035   -1.6858377565    0.5101395928
H        0.8049046706   -2.6734516556   -0.2015755369
H        0.5901381057   -1.9759405573    1.4068069472
H        2.0346791037   -0.3809591843   -1.7052801428
H        0.5399935790    0.4306549955   -2.2227441698
H        0.6461697213   -1.3336448773   -2.2622910751
H        1.6700472683    2.6059963521    0.7485634494
H        1.6621479045    1.9640147334   -0.9024680815
H        2.6460127645    1.1831541565    0.3524889749
H        0.3970299882    1.5752722867    2.5397116041
H        1.3985320742    0.1153264805    2.4308851581
H       -0.3701865271   -0.0089827902    2.3722208340
22   
Generated by ForceBalance from scan.xyz: Frame 3 of 15
C       -1.2060229586   -0.6917778677   -0.4134634953
C        0.3235742409   -0.6156429554   -0.2903658124
C        0.4779830623    0.7117851981    0.5263875440
C        0.8715272399   -1.8779706484    0.3951349313
C        0.8850847864   -0.5320712542   -1.7223352900
C        1.5846765558    1.6542648447    0.0666039106
C        0.5374302615    0.5150791215    2.0441309617
O       -1.8530459302   -1.3489407014   -1.1874104276
O       -1.7658189653    0.3333507331    0.3379869639
O       -0.7750579553    1.3996706990    0.1900598516
H        1.9573602215   -1.8009779826    0.5156067427
H        0.6620855875   -2.7524170933   -0.2270525942
H        0.4297269884   -2.0510903854    1.3785934151
H        1.9777779604   -0.4829218977   -1.7051670524
H        0.5020581181    0.3380823798   -2.2611624147
H        0.5869622553   -1.4239863187   -2.2784455313
H        1.5677830669    2.5683608711    0.6667795356
H        1.4785386094    1.9302392599   -0.9830670198
H        2.5590582781    1.1762956151    0.2062354378
H        0.4948032337    1.4918259634    2.5332877234
H        1.4687835859    0.0229214076    2.3384029258
H       -0.3012843214   -0.0819306810    2.4080352158
22   
Generated by ForceBalance from scan.xyz: Frame 4 of 15
C       -1.1694317766   -0.6226586412   -0.4961678542
C        0.3521353735   -0.5999977475   -0.2841360020
C        0.4891738647    0.7271519319    0.5541008557
C        0.7926766919   -1.8807001328    0.4501431344
C        1.0293134383   -0.5563440105   -1.6637057064
C        1.4878916171    1.7503013578    0.0251674253
C        0.6796085747    0.5200109664    2.0583743163
O       -1.7858172732   -1.0152696840   -1.4492458631
O       -1.7373971173    0.2057204428    0.4844659992
O       -0.8317185401    1.3487450118    0.3373302341
H        1.8673170666   -1.8493847926    0.6569625614
H        0.5997501085   -2.7515222126   -0.1829750447
H        0.2670457387   -2.0278556891    1.3957517835
H        2.1170812656   -0.5032983979   -1.5596035304
H        0.6911821096    0.2927981268   -2.2613390275
H        0.7805729216   -1.4638714475   -2.2189070650
H        1.4258862917    2.6649244921    0.6218146992
H        1.2998173328    2.0087753551   -1.0173439255
H        2.5058846258    1.3592245209    0.1124509539
H        0.6845870613    1.4929341817    2.5570146759
H        1.6292841713    0.0207839453    2.2715710828
H       -0.1307668970   -0.0742788980    2.4842783289
22   
Generated by ForceBalance from scan.xyz: Frame 5 of 15
C       -1.1706123652   -0.5547904368   -0.6120574320
C        0.3297057301   -0.6361283179   -0.3117449706
C        0.4546264649    0.6880807779    0.5532456951
C        0.6211635733   -1.9365210354    0.4633887099
C        1.1335807810   -0.6388807685   -1.6179982970
C        1.2955424770    1.7988950361   -0.0653698487
C        0.8328962129    0.4717811079    2.0173493561
O       -1.7302657905   -0.5923869916   -1.6715013091
O       -1.7482999627    0.0128798824    0.5540662899
O       -0.9319594967    1.2281755778    0.5103404049
H        1.6700435587   -1.9740051083    0.7723817009
H        0.4369366016   -2.7984769028   -0.1851423526
H       -0.0032683506   -2.0433815359    1.3521615531
H        2.2079987320   -0.6193706264   -1.4106360138
H        0.8850840138    0.2054986806   -2.2623302448
H        0.9141081763   -1.5499439334   -2.1808165659
H        1.2044687975    2.7031747974    0.5437301189
H        0.9725011226    2.0396915530   -1.0789686668
H        2.3506586916    1.5118788348   -0.0872754375
H        0.8514158469    1.4364463045    2.5316845711
H        1.8249340212    0.0182554159    2.1068796802
H        0.1090466418   -0.1682700255    2.5241018404
22   
Generated by ForceBalance from scan.xyz: Frame 6 of 15
C       -1.1688208841   -0.4689397555   -0.6718739861
C        0.3073338041   -0.6583195988   -0.3142467554
C        0.4211112512    0.6709113973    0.5632885485
C        0.5024945780   -1.9624432259    0.4810610203
C        1.1969737514   -0.6837670857   -1.5606560899
C        1.1378780528    1.8295069307   -0.1190955808
C        0.9375100872    0.4583146063    1.9818591957
O       -1.6396669257   -0.1656218598   -1.7310455063
O       -1.7564265233   -0.1018277997    0.5855354724
O       -1.0013510589    1.1478703592    0.6485103559
H        1.5279974498   -2.0403973904    0.8533369181
H        0.3261752199   -2.8201466745   -0.1759737949
H       -0.1802295739   -2.0392254009    1.3284333199
H        2.2545808921   -0.6872981674   -1.2778541483
H        1.0145518554    0.1616695479   -2.2241864575
H        1.0019534739   -1.5950958286   -2.1331905776
H        1.0242480449    2.7303638005    0.4918552522
H        0.7202755679    2.0377508810   -1.1055433749
H        2.2066971842    1.6205265989   -0.2179507710
H        0.9495042173    1.4155357748    2.5105593437
H        1.9579982026    0.0614199445    1.9722105368
H        0.3002757682   -0.2295777528    2.5393153881
22   
Generated by ForceBalance from scan.xyz: Frame 7 of 15
C       -1.1314504679   -0.3746704713   -0.6953552312
C        0.3231160583   -0.6634539175   -0.3052748557
C        0.4375526854    0.6719007148    0.5926965707
C        0.4602625174   -1.9721228310    0.4885044822
C        1.2656557506   -0.6911642869   -1.5106697394
C        1.1174441422    1.8422980701   -0.1037032718
C        1.0030392023    0.4394005820    1.9871082769
O       -1.4714923795    0.1997106113   -1.6915237792
O       -1.7173018377   -0.1168113830    0.6068773025
O       -0.9943848987    1.1405386013    0.7369186026
H        1.4745717240   -2.0841700440    0.8822039521
H        0.2733314883   -2.8219561264   -0.1762171158
H       -0.2430742640   -2.0311260824    1.3196526595
H        2.3095703730   -0.6872235958   -1.1806665959
H        1.1083134630    0.1491908504   -2.1863302886
H        1.1043484667   -1.6093129255   -2.0836229067
H        0.9825471563    2.7428307291    0.5039845076
H        0.6807436753    2.0338422156   -1.0855224129
H        2.1909625241    1.6647716223   -0.2123537188
H        1.0274089832    1.3883417656    2.5306281539
H        2.0253175869    0.0501061826    1.9348197631
H        0.3893348497   -0.2615505848    2.5544958040
22   
Generated by ForceBalance from scan.xyz: Frame 8 of 15
C       -0.8455214607   -0.9294355976   -0.4837869963
C        0.6818412783   -0.8455227889   -0.3767645359
C        0.6294422935    0.4549743776    0.5764333898
C        1.2985782754   -2.0814669073    0.2821751631
C        1.3448648373   -0.6020776300   -1.7415518500
C        1.5368536661    1.5929758080    0.1294718633
C        0.7903368458    0.1547977348    2.0600316881
O       -1.5447876380   -1.6020601948    0.2208389132
O       -1.1691503656    0.4372312051   -0.8484864659
O       -0.8047585912    0.9275094939    0.4733666386
H        2.3487270262   -1.8984549472    0.5319153005
H        1.2673449630   -2.9247689150   -0.4143584130
H        0.7705044560   -2.3830024767    1.1864348051
H        2.4132016291   -0.3987041084   -1.6246186452
H        0.8908301511    0.2281585265   -2.2833381272
H        1.2503751139   -1.5024296439   -2.3575494387
H        1.4249697042    2.4364140417    0.8169245239
H        1.2812645512    1.9361616766   -0.8739187813
H        2.5870630764    1.2826331141    0.1386812576
H        0.5570941136    1.0588693814    2.6316024387
H        1.8182558868   -0.1369803928    2.2924330923
H        0.1078091402   -0.6318313318    2.3867371592
22   
Generated by ForceBalance from scan.xyz: Frame 9 of 15
C       -0.8495631664   -0.9375573533   -0.5872294367
C        0.6637174476   -0.8501274279   -0.3746467801
C        0.6077230279    0.4294312313    0.5790550861
C        1.2212553344   -2.1168349072    0.2812481509
C        1.3799360747   -0.6103668702   -1.7166052397
C        1.4694978691    1.6026461367    0.1261666079
C        0.8092653642    0.1335583956    2.0601465089
O       -1.6117925536   -1.7510663149   -0.1481897851
O       -1.2146861523    0.4273903174   -0.8415860084
O       -0.8331016024    0.8494988079    0.5045406515
H        2.2757304458   -1.9818658950    0.5427671173
H        1.1562350442   -2.9534129750   -0.4203626457
H        0.6715455736   -2.4021092113    1.1783228022
H        2.4445394540   -0.4151161468   -1.5590726177
H        0.9531687839    0.2256286742   -2.2725115627
H        1.2997620338   -1.5078904701   -2.3382707057
H        1.3402633522    2.4369507330    0.8212751421
H        1.1864418432    1.9440453503   -0.8705023722
H        2.5297262193    1.3291289866    0.1152998894
H        0.5965545568    1.0382641603    2.6380558104
H        1.8434782566   -0.1601118307    2.2601070452
H        0.1388790164   -0.6534848208    2.4094072871
22   
Generated by ForceBalance from scan.xyz: Frame 10 of 15
C       -0.8564446371   -0.9073647680   -0.7241923931
C        0.6388827424   -0.8642019433   -0.3925592099
C        0.6165362591    0.3984513947    0.5679039615
C        1.0743940269   -2.1777462862    0.2688410563
C        1.4406629508   -0.6639477719   -1.6940419738
C        1.3805419083    1.6170278181    0.0532517324
C        0.9606169396    0.1193551527    2.0264804798
O       -1.6253431732   -1.8211280373   -0.6198146059
O       -1.2634552475    0.4522712674   -0.7630740436
O       -0.8309491856    0.7440001497    0.6055280599
H        2.1229074514   -2.1256501282    0.5781312860
H        0.9728510832   -2.9985951444   -0.4459061412
H        0.4643527011   -2.4295826524    1.1373603325
H        2.5048882120   -0.5355139475   -1.4750419401
H        1.1005722014    0.2006620769   -2.2667921277
H        1.3384463860   -1.5506288313   -2.3271678472
H        1.2685904075    2.4400130115    0.7643262881
H        0.9950831954    1.9488011804   -0.9120305957
H        2.4480272490    1.3994998225   -0.0515892594
H        0.7850797845    1.0224983212    2.6185439326
H        2.0163380141   -0.1486879206    2.1251487277
H        0.3506563556   -0.6827788900    2.4439178562
22   
Generated by ForceBalance from scan.xyz: Frame 11 of 15
C       -0.8095629839   -0.8252176906   -0.8200302585
C        0.6569290169   -0.8284658373   -0.3611761139
C        0.6389045603    0.4086837887    0.6139883195
C        0.9439464829   -2.1754641681    0.3221725675
C        1.5830812776   -0.6791492755   -1.5832594885
C        1.2345393334    1.6931776690    0.0331906482
C        1.1750276488    0.1589438154    2.0190862526
O       -1.5112879240   -1.7635342965   -1.0839321354
O       -1.3213360721    0.4567061940   -0.5656225524
O       -0.8107032810    0.6146774191    0.7993221548
H        1.9711824305   -2.2081984593    0.6971550839
H        0.8156894936   -2.9840046709   -0.4013649480
H        0.2603239261   -2.3701687967    1.1512082490
H        2.6285604488   -0.6237384534   -1.2630734463
H        1.3600576571    0.2098852510   -2.1765678619
H        1.4784426167   -1.5535452104   -2.2319986394
H        1.1041308374    2.5065230937    0.7520067671
H        0.7364571443    1.9788826385   -0.8950281810
H        2.3043020403    1.5786944162   -0.1644718841
H        1.0200500150    1.0502119133    2.6338894200
H        2.2499835929   -0.0404886182    1.9793854255
H        0.6801362436   -0.6822113318    2.5054402918
22   
Generated by ForceBalance from scan.xyz: Frame 12 of 15
C       -0.8053227363   -0.7695546891   -0.9186097369
C        0.6330760038   -0.8361433541   -0.3826441368
C        0.6256828296    0.3792392533    0.6051068773
C        0.7892241347   -2.2010786526    0.3140581144
C        1.6426674386   -0.7393855252   -1.5380686459
C        1.0997087698    1.6976429439   -0.0136718699
C        1.3004792803    0.1491138499    1.9527505924
O       -1.4238674602   -1.6343094689   -1.4835024749
O       -1.4162365533    0.3722756914   -0.4166690114
O       -0.8068661180    0.4902376692    0.9082121497
H        1.8010570311   -2.3158263723    0.7137053433
H        0.6107453694   -2.9980695394   -0.4116116086
H        0.0723977108   -2.3280747190    1.1290698699
H        2.6657065205   -0.7478664386   -1.1471791694
H        1.5134306146    0.1634723799   -2.1384815539
H        1.5265534580   -1.6029225311   -2.1987197721
H        0.9211237774    2.5101856812    0.6955575144
H        0.5613480247    1.9289677693   -0.9350550499
H        2.1702023442    1.6629504385   -0.2352021846
H        1.1893094692    1.0375542905    2.5807496455
H        2.3700423340   -0.0286614752    1.8050967630
H        0.8751703219   -0.7028937915    2.4841920942
22   
Generated by ForceBalance from scan.xyz: Frame 13 of 15
C       -0.7756862578   -0.7136512984   -0.9181796642
C        0.6480865116   -0.8067933721   -0.3592495762
C        0.6460291560    0.3806932941    0.6469747530
C        0.7559818547   -2.1863035228    0.3239372352
C        1.6804608948   -0.7170058626   -1.4917385592
C        1.0256683560    1.7272977002    0.0224554620
C        1.4094796350    0.1578929810    1.9480698895
O       -1.3266979157   -1.4399743275   -1.7066254219
O       -1.4670565480    0.2771332546   -0.2498295683
O       -0.7660016889    0.4145606750    1.0298399377
H        1.7632137317   -2.3383088276    0.7226975316
H        0.5542149463   -2.9691580016   -0.4114184325
H        0.0352689274   -2.2953903927    1.1384779014
H        2.6949236474   -0.7615671857   -1.0812444772
H        1.5858913715    0.2003850527   -2.0762779035
H        1.5513404315   -1.5629120878   -2.1720094307
H        0.8200194632    2.5247219300    0.7413729870
H        0.4498895581    1.9325757828   -0.8830640764
H        2.0895347769    1.7549178556   -0.2292410428
H        1.3112331148    1.0345830199    2.5943080546
H        2.4723472026    0.0152666294    1.7302431576
H        1.0437973885   -0.7135775153    2.4922483695
22   
Generated by ForceBalance from scan.xyz: Frame 14 of 15
C       -0.7433712387   -0.6875945700   -0.9346600616
C        0.6608681840   -0.8135356162   -0.3446030681
C        0.6508243252    0.3736915203    0.6552802178
C        0.7135458335   -2.1912407548    0.3523832824
C        1.7254599955   -0.7492986191   -1.4444772586
C        0.9658291902    1.7261442266    0.0065728123
C        1.4632605973    0.1829435164    1.9312123265
O       -1.2218718097   -1.2505004071   -1.8884323666
O       -1.5020170657    0.1507666760   -0.1524175813
O       -0.7464184939    0.3657305816    1.0840145971
H        1.7095521252   -2.3691557244    0.7683500759
H        0.5031701360   -2.9755879890   -0.3794114633
H       -0.0221218688   -2.2688397093    1.1571102024
H        2.7265682521   -0.8127722202   -1.0047952497
H        1.6639439577    0.1672666636   -2.0344951407
H        1.5980393069   -1.5933193285   -2.1271194199
H        0.7421399550    2.5242596092    0.7192096678
H        0.3663862001    1.8973582226   -0.8912960491
H        2.0226857833    1.7923474391   -0.2660124677
H        1.3520565062    1.0553756225    2.5811441470
H        2.5232548079    0.0818037209    1.6785927413
H        1.1486806774   -0.7018599119    2.4858828253
22   
Generated by ForceBalance from scan.xyz: Frame 15 of 15
C       -1.0820291938   -0.6885634561   -0.2891577013
C        0.4369974305   -0.5433077722   -0.2639631557
C        0.5588065251    0.7763330549    0.5391845573
C        1.0956490138   -1.7699626435    0.3707664998
C        0.8920244983   -0.3981790590   -1.7333940150
C        1.7732202571    1.6430665333    0.2258706615
C        0.3968645569    0.5862910048    2.0516970974
O       -1.7605740910   -1.6773052325   -0.4273618529
O       -1.6653508647    0.5392427562   -0.1014696421
O       -0.5890571876    1.5258128325    0.0319321436
H        2.1809228669   -1.6323557898    0.4221829564
H        0.8911443711   -2.6534014619   -0.2392394876
H        0.7217129661   -1.9705510271    1.3764569635
H        1.9820027455   -0.3227374110   -1.7874950818
H        0.4555611079    0.4835941324   -2.2093379203
H        0.5852436312   -1.2817451180   -2.2999527451
H        1.7378645129    2.5656800710    0.8119972193
H        1.8209940603    1.9086444779   -0.8308307716
H        2.6865595868    1.1046321850    0.4971227647
H        0.2852669380    1.5657206048    2.5239224388
H        1.2732571031    0.0931593036    2.4809617068
H       -0.4874423711   -0.0088942271    2.2956861497
