28

C      1.63387    2.51960    1.14357
C      3.83065    5.43407    0.59092
C      3.86281    4.28410   -0.38890
C     -1.20072    0.13142    1.58588
C     -2.39825    1.16359   -0.17708
C      3.56356    4.02691    1.06691
C     -2.27984   -0.18831    0.54092
C      0.22604    2.25753    1.72544
N      2.20508    3.69253    1.44891
N     -0.32462    1.13979    0.90309
O      2.13602    1.61753    0.46519
O     -1.04258    1.67760   -0.23496
O     -3.44912   -0.56132    1.22969
H      4.76474    5.89223    0.89826
H      2.98729    6.11649    0.53321
H      3.03875    4.19341   -1.08847
H      4.82009    3.93729   -0.76259
H     -1.67114    0.59144    2.45591
H     -0.58786   -0.71821    1.88752
H     -2.72763    1.10211   -1.21455
H     -3.04214    1.84013    0.39407
H      4.31990    3.52749    1.66561
H     -1.93280   -0.96482   -0.14941
H     -0.46337    3.10000    1.66783
H      0.31398    1.91117    2.75823
H      1.70615    4.33815    2.05221
H      0.54113    0.72346    0.47700
H     -3.97412   -1.17726    0.69462
