25

C      5.16124    1.43461   -5.25305
C      4.22238    0.50464   -4.90175
C      5.98661   -0.83605   -5.01271
C      2.20183    2.09756   -4.74515
C      0.20963    3.36353   -4.59027
C      7.66633   -1.80829   -2.41828
C      2.75136    0.68917   -4.64879
N      4.70816   -0.78719   -4.75514
N      6.69524   -2.04706   -5.01924
O      2.82480    3.11658   -4.97406
O      8.45452   -3.64048   -4.18700
O      9.04560   -1.17804   -4.58830
O      0.86583    2.07832   -4.52987
S      6.72116    0.68848   -5.45382
S      8.13702   -2.21744   -4.11445
H      5.02596    2.49803   -5.38108
H     -0.84348    3.15968   -4.39887
H      0.34307    3.81225   -5.57715
H      0.61743    4.03470   -3.83103
H      8.57849   -1.85849   -1.82114
H      7.25728   -0.79734   -2.40479
H      6.93625   -2.54065   -2.07221
H      2.18185    0.06107   -5.34329
H      2.50010    0.30244   -3.65445
H      6.07986   -2.85116   -4.89873
