25

C      4.56745    0.99338   -5.21578
C      4.43312    0.28514   -4.05519
C      6.48821   -0.36040   -4.57447
C      3.56859    0.73352   -1.73444
C      4.53435    2.45782   -0.44083
C      7.40621   -2.83083   -2.42619
C      3.23477    0.27992   -3.14921
N      5.53385   -0.47112   -3.69558
N      7.70349   -1.03735   -4.45669
O      3.32173    0.10260   -0.72652
O      6.55255   -3.36483   -4.88333
O      9.06591   -3.14675   -4.51107
O      4.16211    1.94771   -1.73825
S      6.11912    0.67903   -5.94167
S      7.68987   -2.75681   -4.19749
H      3.87339    1.69056   -5.66591
H      5.00246    3.42322   -0.63182
H      5.23719    1.77725    0.04512
H      3.65074    2.57453    0.19098
H      7.35400   -3.89066   -2.16994
H      8.24583   -2.34458   -1.93024
H      6.46395   -2.32228   -2.22164
H      2.46332    0.94247   -3.55248
H      2.82004   -0.72741   -3.07091
H      8.42029   -0.81716   -5.14541
