18

C      0.13742    0.12023    0.22736
C     -0.87376   -1.85591   -2.68487
C      0.51298    0.50607    1.42467
C     -0.24263   -0.23200   -0.98526
C     -1.00432   -3.37314   -2.76420
C     -0.17933   -3.89378   -1.57572
C     -0.16929   -2.71818   -0.57628
N     -0.37674   -1.55198   -1.42987
O     -1.16873   -1.03525   -3.54370
H      1.56220    0.67694    1.66764
H     -0.20990    0.67676    2.22302
H     -0.48623    0.50663   -1.74604
H     -2.06838   -3.61999   -2.67084
H     -0.66886   -3.73163   -3.73916
H     -0.58763   -4.80318   -1.12947
H      0.84409   -4.10784   -1.89699
H     -0.97612   -2.78950    0.16514
H      0.77554   -2.62674   -0.03279
