28

C      1.80890    1.54801    0.40012
C      4.87399    0.60078   -0.22708
C      5.44782    1.16298    1.05340
C     -1.19585    1.45245   -0.62944
C     -0.37815   -0.72950   -1.11721
C      4.24247    1.81018    0.41777
C     -1.50757    0.23324   -1.51209
C      0.54918    1.55170    1.28703
N      2.96633    1.65752    1.08547
N     -0.58894    0.83492    0.61593
O      1.70956    1.47984   -0.82162
O     -0.20369   -0.52695    0.31778
O     -1.45511    0.65451   -2.85242
H      5.40775    0.75963   -1.15786
H      4.32826   -0.33481   -0.16439
H      5.29400    0.58989    1.96357
H      6.38309    1.71144    1.01649
H     -0.44579    2.07119   -1.11441
H     -2.07115    2.02919   -0.32872
H     -0.63024   -1.78552   -1.21943
H      0.54388   -0.47350   -1.64038
H      4.36757    2.77120   -0.07299
H     -2.48409   -0.19229   -1.25077
H      0.20658    2.57433    1.47405
H      0.70709    1.04526    2.24120
H      2.94369    1.75536    2.09469
H     -1.32763    0.72071    1.31783
H     -2.00683    0.07942   -3.40585
