28

C      1.71963    2.24453    0.50018
C      4.68362    4.38927    1.03867
C      4.03598    4.35034   -0.32611
C     -1.00357    1.12389   -0.64989
C      0.60098   -0.72639   -0.66570
C      4.00171    3.13064    0.56119
C     -0.34746    0.07220   -1.58866
C      0.45872    1.97481    1.33308
N      2.75030    2.76043    1.19287
N     -0.39711    0.89474    0.72832
O      1.72045    2.03749   -0.71459
O      0.30006   -0.36067    0.71730
O      0.28408    0.62859   -2.70310
H      5.76590    4.36997    1.10987
H      4.18819    4.97153    1.81051
H      3.10782    4.89642   -0.45846
H      4.66716    4.30189   -1.20682
H     -0.78336    2.13638   -0.97533
H     -2.07861    0.97906   -0.54371
H      0.43929   -1.80371   -0.70480
H      1.64076   -0.48097   -0.88070
H      4.61731    2.27922    0.28528
H     -1.12762   -0.57793   -1.98667
H     -0.16380    2.87394    1.38356
H      0.68812    1.64263    2.34729
H      2.70126    2.79993    2.20540
H     -1.15549    0.72276    1.39630
H      0.99718    1.21523   -2.38725
