27

C     -1.71787   -2.84027   -1.53852
C     -2.31631   -3.50927   -4.69056
C     -3.37424   -2.43722   -4.85304
C     -0.24810    0.03891   -1.57686
C     -0.10879    0.56619    0.75956
C     -3.15756   -3.09233   -3.51007
C      0.76207    0.52172   -0.51173
C     -1.28746   -1.86770   -0.43487
N     -1.41993   -0.46253   -0.84814
N     -2.55351   -2.30557   -2.47255
O     -1.33702   -4.00838   -1.53144
O     -1.47127    0.38411    0.31759
O      1.25529    1.79425   -0.93534
H     -2.49773   -4.49246   -5.11271
H     -1.27721   -3.19799   -4.68179
H     -3.03605   -1.41118   -4.96808
H     -4.28591   -2.67782   -5.39132
H     -0.53807    0.90685   -2.17419
H      0.14597   -0.73720   -2.23568
H      0.16870   -0.22403    1.46946
H     -0.06414    1.53851    1.25527
H     -3.90677   -3.80298   -3.16772
H      1.59512   -0.18110   -0.38886
H     -1.95893   -2.01785    0.41488
H     -0.27641   -2.16297   -0.12386
H     -2.85400   -1.34897   -2.31210
H      1.99080    2.04845   -0.35688
