43

C     -1.38764   -5.25455    3.50651
C     -0.29296   -4.38375    3.32597
C     -2.38288   -4.83379    2.63135
C     -0.63052   -3.44775    2.34116
C      0.19868   -2.35499    1.83113
C     -2.75414   -3.07568    0.92842
C     -1.05488    1.76514   -1.01758
C     -1.70055   -0.51312   -1.62663
C      2.17492    1.18655    1.48579
C     -0.16035    1.25491    2.23210
C      2.05711    0.34424   -1.84503
C      2.37458   -1.89117   -0.85168
N     -0.29624   -1.69591    0.75978
N     -1.93408   -3.74960    1.92683
N     -0.94531    0.34205   -0.71129
N      0.77539    0.91243    1.15239
N      1.57508   -0.66624   -0.90773
P      0.32704   -0.34381    0.14439
S      1.68542   -2.01823    2.59868
H     -1.45737   -6.09069    4.19029
H      0.65957   -4.39904    3.83605
H     -3.37855   -5.22356    2.46251
H     -2.76682   -1.99958    1.09870
H     -2.37011   -3.25599   -0.07781
H     -3.76944   -3.47292    1.00336
H     -0.41164    2.34560   -0.35708
H     -2.09192    2.09349   -0.87248
H     -0.77796    1.97888   -2.06120
H     -1.58679   -1.55650   -1.33859
H     -1.35718   -0.38912   -2.66445
H     -2.76560   -0.25497   -1.58169
H      2.83663    0.75902    0.73384
H      2.44024    0.74417    2.45111
H      2.32854    2.27293    1.51574
H     -1.18824    1.06670    1.91598
H     -0.06305    2.32027    2.47108
H      0.04838    0.66175    3.13103
H      1.44524    1.24537   -1.79632
H      2.02069   -0.04162   -2.87202
H      3.09406    0.63063   -1.62246
H      1.86454   -2.64868   -0.26093
H      3.35661   -1.71008   -0.39773
H      2.51294   -2.26954   -1.87215
