18

C     -0.50544    1.00427   -2.01722
C     -0.77302   -1.88976   -2.80885
C     -0.76464    2.12165   -2.65117
C     -0.19066   -0.03847   -1.27265
C     -0.84583   -3.41014   -2.68522
C     -0.00051   -3.73408   -1.44413
C     -0.07083   -2.44388   -0.60510
N     -0.28949   -1.40059   -1.60938
O     -1.09845   -1.20885   -3.77047
H     -0.01967    2.60169   -3.28526
H     -1.74876    2.58714   -2.60376
H      0.20670    0.13297   -0.27394
H     -1.89913   -3.68404   -2.55195
H     -0.49703   -3.88186   -3.60573
H     -0.35566   -4.60371   -0.88659
H      1.03640   -3.92180   -1.73818
H     -0.90413   -2.46687    0.11079
H      0.85106   -2.25416   -0.04647
