15

C      5.47164   -2.46849    2.07429
C     -0.22195   -3.32920    3.59340
C      4.10618   -2.02412    4.12321
C      2.89946   -1.24887    3.58690
N      5.18977   -2.08962    3.18067
S      5.99663   -2.92281    0.64701
S      1.39913   -3.81780    2.88997
S      2.10222   -2.00893    2.11771
H     -0.67701   -4.24431    3.98453
H     -0.86329   -2.90693    2.81797
H     -0.09960   -2.61380    4.40970
H      3.80093   -3.04114    4.39557
H      4.46676   -1.53046    5.03114
H      2.16188   -1.13463    4.38687
H      3.20246   -0.25065    3.25461
