25

C      4.88428    1.98896   -5.53623
C      4.00976    1.19639   -4.85001
C      5.60273   -0.31170   -5.17004
C      2.66761    1.09431   -2.78689
C      3.87702    1.08363   -0.75344
C      4.66644   -3.10046   -3.47190
C      2.70130    1.59931   -4.22575
N      4.41865   -0.11212   -4.67147
N      6.25636   -1.53854   -5.04909
O      1.87360    0.28363   -2.35308
O      7.33775   -3.30938   -3.63345
O      6.31988   -1.30988   -2.42325
O      3.66729    1.64328   -2.06866
S      6.32597    1.09075   -5.94108
S      6.27790   -2.30968   -3.48908
H      4.78308    3.02881   -5.81717
H      4.65836    1.69357   -0.30115
H      4.21360    0.04882   -0.84883
H      2.95776    1.12771   -0.16588
H      4.59697   -3.62433   -2.51663
H      3.91328   -2.31685   -3.55437
H      4.62437   -3.79794   -4.30807
H      2.59233    2.68674   -4.24265
H      1.85588    1.14671   -4.74884
H      7.17808   -1.62084   -5.47326
