24

C      4.39379    1.90454   -4.84465
C      3.72011    0.93536   -4.15790
C      5.53682   -0.30588   -4.60946
C      1.53717   -0.15738   -4.06079
C      1.51203   -2.51000   -3.75333
C      5.63719   -2.63842   -2.41983
C      2.32093    1.05687   -3.59012
N      4.35344   -0.27644   -4.01277
N      6.44168   -1.28993   -4.70285
O      0.91248   -0.21725   -5.10492
O      7.18954   -3.64685   -4.30588
O      4.74638   -3.28628   -4.82109
O      1.67839   -1.18633   -3.19631
S      5.94654    1.27718   -5.37727
S      5.99617   -2.78142   -4.19775
H      4.06565    2.90637   -5.09035
H      1.40200   -3.17798   -2.89696
H      2.41772   -2.76151   -4.31345
H      0.62673   -2.55344   -4.39165
H      5.37646   -3.64017   -2.07028
H      6.54005   -2.28000   -1.92140
H      4.80670   -1.94295   -2.29685
H      2.35454    1.06433   -2.49534
H      1.83657    1.96494   -3.95415
