35

C      0.85917   -1.08281    1.91629
C     -0.33741   -1.55404    1.33421
C      1.09638   -1.26593    3.26821
C      0.28045   -2.16711    5.46625
C     -4.09534   -4.32473    5.34328
C     -1.30028   -2.20844    2.09659
C     -5.16678   -4.98929    5.91841
C     -0.70310   -2.81839    6.16929
C     -2.96740   -4.26646    7.51122
C      0.13695   -1.92744    4.06980
C     -2.97791   -3.94999    6.12141
C     -1.04955   -2.38652    3.45637
C     -5.15904   -5.30271    7.28876
C     -4.03092   -4.92964    8.09533
C     -1.87777   -3.26267    5.51449
C     -7.30855   -6.35412    7.21114
C     -3.04376   -4.94089   10.26927
O     -2.00482   -3.03247    4.19628
O     -6.13577   -5.93670    7.93417
O     -4.12488   -5.27801    9.39465
H      1.59313   -0.57567    1.29810
H     -0.51202   -1.40451    0.27298
H      2.01391   -0.90710    3.72607
H      1.17903   -1.82851    5.97566
H     -4.12085   -4.09184    4.28555
H     -2.22411   -2.57548    1.66121
H     -6.01369   -5.26621    5.30239
H     -0.58999   -2.99649    7.22979
H     -2.12304   -3.99238    8.12839
H     -7.94114   -6.84191    7.95050
H     -7.04199   -7.06451    6.42289
H     -7.82863   -5.48883    6.78939
H     -3.33571   -5.31115   11.25094
H     -2.90078   -3.85500   10.31514
H     -2.11626   -5.43257    9.95351
