53

C      4.91334   -4.08708   11.37748
C      5.87887   -4.38645   10.37945
C      3.80992   -3.32013   11.06810
C      2.51684   -2.02803    9.36325
C      2.56980    0.10590    1.86604
C      0.60621    1.13982    2.78941
C      5.72746   -3.91654    9.09154
C      2.88106   -0.44382    3.11446
C      0.89855    0.59857    4.03831
C      2.41360   -1.58449    8.06389
C      3.62717   -2.82203    9.74945
C      1.43423    0.90167    1.68269
C      4.59998   -3.12377    8.74332
C      2.03989   -0.19826    4.20786
C      3.43427   -1.94059    7.14144
C     -0.55420   -0.42198   -0.15460
C     -1.84130   -0.28101   -0.51569
C      2.25517    2.22878   -0.24655
C     -2.92156   -1.12350    0.12154
C     -2.34072    0.69695   -1.55230
C      3.30634    4.34286   -0.35037
C      3.39330   -1.49928    5.69442
C      0.63156    0.34627   -0.67499
C      1.07104    1.45665    0.31227
N      4.48366   -2.67656    7.45933
O      3.17672    1.74350   -0.87757
O      2.24568   -0.68715    5.47256
O      2.18025    3.54325    0.06786
H      5.04945   -4.46611   12.38687
H      6.74374   -4.99209   10.63765
H      3.06744   -3.08764   11.82844
H      1.75544   -1.77617   10.09852
H      3.23140   -0.08642    1.02560
H     -0.28515    1.75065    2.66982
H      6.45493   -4.13500    8.31520
H      3.77258   -1.05198    3.21639
H      0.25553    0.78070    4.89461
H      1.58171   -0.97601    7.73014
H     -0.32683   -1.14795    0.62527
H     -3.67394   -0.49159    0.61176
H     -2.51410   -1.81036    0.86839
H     -3.45451   -1.71561   -0.63404
H     -2.84958    0.16837   -2.36868
H     -1.54851    1.30766   -1.98895
H     -3.08229    1.37532   -1.11094
H      3.08368    5.35607   -0.01617
H      3.41586    4.30948   -1.43688
H      4.22462    3.97642    0.11463
H      4.31106   -0.94346    5.46458
H      3.36694   -2.38827    5.05119
H      1.47790   -0.33035   -0.82890
H      0.42237    0.80306   -1.64604
H      0.24587    2.16189    0.43966
