21   

C        0.9864205076   -5.3994528109   -1.6626502670
C        0.6617332611   -4.1891034120   -0.9517965106
C        1.7445804287   -5.0190292401   -2.7332686352
C        1.2475867850   -3.1610821226   -1.6450271024
C       -0.6435981754   -0.6642239898    1.3218798255
C        0.5962538784   -1.1149995879   -0.3966658245
C        0.3720731225    0.3576408570   -0.3744605362
C        1.2538846687   -1.7559778712   -1.4015432342
C       -1.0315583473    1.8329292153    1.0960923860
N       -0.0837774834   -1.6691663147    0.6828069033
N       -0.3754678864    0.5846347042    0.7508658311
O        0.7397224059    1.2034114237   -1.1801560793
O        1.9149393794   -3.6578202073   -2.7397849233
H        0.6926092630   -6.4105976852   -1.4063176469
H        0.0712070875   -4.1063910015   -0.0470856846
H        2.1556623002   -5.6933812415   -3.4756868312
H       -1.2574582315   -0.7981638639    2.2059419468
H        1.7613745618   -1.1435077826   -2.1372521725
H       -0.6382040248    2.2145140560    2.0435415028
H       -2.1123134098    1.6844620058    1.1845554950
H       -0.8540554479    2.5866443283    0.3217651672
21   

C        0.8548064281   -5.3668110391   -1.6848600563
C        0.6466725184   -4.1630903154   -0.9208988870
C        1.6250036414   -5.0089284375   -2.7548224966
C        1.3064519106   -3.1616079288   -1.5854559118
C       -0.4753732813   -0.6618998007    1.4184312450
C        0.8021873572   -1.1112425212   -0.2722271065
C        0.4293068800    0.3303956923   -0.3545583956
C        1.4309071601   -1.7736747619   -1.2847011590
C       -1.1383548066    1.7477505872    0.9976802600
N        0.1764076556   -1.6514403710    0.8459349864
N       -0.3285590890    0.5656444260    0.7624448562
O        0.6899173679    1.1414369610   -1.2342960152
O        1.9110912511   -3.6679443888   -2.7116543461
H        0.4798767048   -6.3590226707   -1.4626141669
H        0.0811293818   -4.0660345218   -0.0017119167
H        1.9644043618   -5.6849141744   -3.5312140584
H       -1.0756531114   -0.7933794772    2.3121409915
H        1.9391664679   -1.1744727254   -2.0306646154
H       -0.8001378080    2.2600415537    1.9038160276
H       -2.1922788730    1.4736095012    1.1073964209
H       -1.0543402364    2.4446103999    0.1571381359
21   

C        0.7107105837   -5.2828780630   -1.6965357943
C        0.6168295400   -4.0947126532   -0.8868008652
C        1.5098930310   -4.9581828235   -2.7560377970
C        1.3663218904   -3.1354582557   -1.5167937143
C       -0.3197649868   -0.6481621792    1.5082782108
C        1.0058002891   -1.0853992945   -0.1486029560
C        0.4940349058    0.3063717656   -0.3267242887
C        1.6121981255   -1.7785435713   -1.1590769205
C       -1.2241599738    1.6419560195    0.9172934016
N        0.4224609376   -1.6086121596    0.9998614553
N       -0.2837630556    0.5443517359    0.7760865079
O        0.6642055107    1.0704838280   -1.2684110050
O        1.9205740773   -3.6525209387   -2.6636296694
H        0.2449941360   -6.2435580322   -1.5103703931
H        0.0651507665   -3.9782046151    0.0386097969
H        1.7833671549   -5.6327449256   -3.5592345549
H       -0.9122101034   -0.7784116300    2.4073842643
H        2.1411245579   -1.1987773882   -1.9058927047
H       -0.9526691850    2.2599228292    1.7788362232
H       -2.2411175464    1.2599226754    1.0508204326
H       -1.2140516376    2.2746663949    0.0235478215
21   

C        0.5139644437   -5.1776317212   -1.6689671545
C        0.5027601476   -3.9966415027   -0.8433151842
C        1.3612755326   -4.9076943089   -2.7065892941
C        1.3441150094   -3.0970365077   -1.4433762583
C       -0.3113429825   -0.5945086200    1.5358950298
C        1.0756868698   -1.0277041158   -0.0717171257
C        0.4170229356    0.2822662609   -0.3704041882
C        1.6839460228   -1.7716044945   -1.0516367383
C       -1.4563506709    1.5171334718    0.7406981130
N        0.5297901890   -1.5131067926    1.1109055452
N       -0.3884929065    0.5331112194    0.7095223228
O        0.5022697198    0.9689251270   -1.3807105024
O        1.8795677188   -3.6433017866   -2.5852671336
H       -0.0353893839   -6.0978052899   -1.5078566071
H       -0.0558193257   -3.8435110715    0.0726775663
H        1.5938702462   -5.5917445173   -3.5146308183
H       -0.9000238921   -0.7126478640    2.4391436892
H        2.2516228384   -1.2256462990   -1.7952278147
H       -1.2123349199    2.3118662136    1.4525325306
H       -2.4014089489    1.0485002926    1.0327069737
H       -1.5942315953    1.9674593156   -0.2479754332
21   

C        0.3675891138   -5.0436136769   -1.6802170843
C        0.4451891287   -3.8820576653   -0.8306655526
C        1.2728929517   -4.8413581413   -2.6841959484
C        1.3912458149   -3.0616969828   -1.3850152902
C       -0.1874273121   -0.5598001053    1.5868329456
C        1.2376625466   -0.9847000124    0.0090996324
C        0.4558159913    0.2319351040   -0.3854946546
C        1.8321126564   -1.7846952275   -0.9451805925
C       -1.5214036523    1.3715807859    0.6435215540
N        0.7323124233   -1.4289073221    1.2253375971
N       -0.3665077958    0.4914152042    0.6796069930
O        0.4662243793    0.8358301308   -1.4506529403
O        1.9107582601   -3.6380306853   -2.5190318792
H       -0.2758518626   -5.9069377120   -1.5572106345
H       -0.1245010515   -3.6870313085    0.0705036584
H        1.4632524979   -5.5301793865   -3.4992112335
H       -0.7639240563   -0.6634669567    2.4996711978
H        2.4630368650   -1.2813665640   -1.6671849690
H       -1.3529192464    2.2366801821    1.2924141654
H       -2.4190875955    0.8406174474    0.9755466027
H       -1.6997872786    1.7319218422   -0.3751135988
21   

C        0.2149954691   -4.8803473470   -1.7077094119
C        0.3639668385   -3.7385144829   -0.8409247542
C        1.1962289713   -4.7704141687   -2.6534822131
C        1.4236587846   -3.0222743123   -1.3284251283
C       -0.0742350643   -0.5085999945    1.6366028767
C        1.3705463739   -0.9368443984    0.0757612392
C        0.4795648465    0.1738478845   -0.4017708267
C        1.9564145187   -1.8024124756   -0.8388931430
C       -1.5780720601    1.2202440366    0.5657032267
N        0.9113492171   -1.3245681326    1.3288691435
N       -0.3502615884    0.4489849501    0.6534645240
O        0.4190240211    0.6816897557   -1.5142536672
O        1.9490897813   -3.6445480645   -2.4346266833
H       -0.5232872372   -5.6703601396   -1.6349150925
H       -0.2332168308   -3.4866410108    0.0277608451
H        1.3601358872   -5.4699563013   -3.4651009960
H       -0.6318366110   -0.5881967972    2.5634939694
H        2.6865900153   -1.3640911140   -1.5071352808
H       -1.4818842598    2.1438795110    1.1449077192
H       -2.4238572933    0.6404538350    0.9483991600
H       -1.7937254941    1.4849695346   -0.4748382753
21   

C        1.4873631160   -4.8673093782   -0.8794794097
C        0.6135240451   -3.7309611152   -0.7297547921
C        2.0520839379   -4.7520027463   -2.1193053294
C        0.7162964637   -3.0122420054   -1.8901488739
C       -1.5954418485   -0.5202526679    0.5141643009
C       -0.6030344879   -0.9354071219   -1.3703107843
C        0.1360089879    0.1789943531   -0.6868959029
C        0.0701854652   -1.7958744620   -2.2280776442
C       -0.0997828894    1.2203098104    1.5781757820
N       -1.6288276343   -1.3325918667   -0.5206519253
N       -0.5823027503    0.4433589271    0.4497169613
O        1.2007310398    0.6958856573   -1.0005377521
O        1.5884132429   -3.6279054624   -2.7546586333
H        1.6691179537   -5.6573959462   -0.1603072954
H       -0.0084619042   -3.4842438690    0.1228478274
H        2.7671202058   -5.4465726000   -2.5450359246
H       -2.2829130975   -0.6067632634    1.3485970716
H        0.4547245630   -1.3540166652   -3.1384178053
H       -0.0721871254    0.6055523224    2.4833016162
H       -0.7523614607    2.0828119708    1.7455743730
H        0.9139328464    1.5882071435    1.3876580125
21   

C        1.4114952571   -5.0280901291   -1.0095692292
C        0.5755099589   -3.8727224274   -0.8016881908
C        2.0586440216   -4.8205261323   -2.1955448260
C        0.7801961687   -3.0503278531   -1.8773973169
C       -1.5135693810   -0.5691293697    0.5994898190
C       -0.4997111440   -0.9820044112   -1.2722678490
C        0.1227949196    0.2391478024   -0.6657930227
C        0.2101529669   -1.7775071887   -2.1482907439
C       -0.1934644463    1.3699540286    1.5460772244
N       -1.4743235873   -1.4350620476   -0.3907105530
N       -0.6056775726    0.4882751542    0.4679086523
O        1.1180488253    0.8516437583   -1.0314384075
O        1.6831933053   -3.6197088939   -2.7425439533
H        1.5141713080   -5.8910221852   -0.3620501722
H       -0.0884247545   -3.6831372905    0.0337216119
H        2.7701185154   -5.5039210986   -2.6446937344
H       -2.1805124817   -0.6795549785    1.4476393623
H        0.6789283292   -1.2711327224   -2.9828796933
H       -0.0874727910    0.8094925916    2.4802288102
H       -0.9322885623    2.1657366095    1.6826453778
H        0.7722346857    1.8329750990    1.3174352203
21   

C        1.3523545369   -5.1654352262   -1.1477042065
C        0.5697666387   -3.9895868138   -0.8621944111
C        2.0491206834   -4.8897673872   -2.2904822245
C        0.8517395550   -3.0869288566   -1.8536782967
C       -1.4210521993   -0.6044911663    0.7010769658
C       -0.3656152898   -1.0257486745   -1.1444385405
C        0.1265429533    0.2864747633   -0.6203466616
C        0.3619542210   -1.7641407228   -2.0437778789
C       -0.3062464171    1.5146845277    1.5194485410
N       -1.2958893210   -1.5191557849   -0.2368174595
N       -0.6221465217    0.5277102280    0.5018096622
O        1.0453633755    0.9804178891   -1.0371277989
O        1.7551972845   -3.6266114434   -2.7377474802
H        1.3879308137   -6.0861415907   -0.5771775919
H       -0.1104304976   -3.8418639491   -0.0315431266
H        2.7387360128   -5.5689577843   -2.7784237463
H       -2.0757087702   -0.7287786632    1.5568417970
H        0.8720276704   -1.2144326040   -2.8253802829
H       -0.1573915064    1.0304965637    2.4897083280
H       -1.1183884581    2.2439830718    1.5991527153
H        0.6138475325    2.0506687146    1.2637472326
21   

C        1.2990473419   -5.2835574350   -1.2869517459
C        0.5812551982   -4.0903516710   -0.9165014205
C        2.0315157986   -4.9579723623   -2.3933727341
C        0.9329913072   -3.1275586062   -1.8264823296
C       -1.3211380320   -0.6354613886    0.7992723040
C       -0.2117997234   -1.0708853665   -1.0099081261
C        0.1433734913    0.3136965119   -0.5769861681
C        0.5281145290   -1.7653216447   -1.9262473973
C       -0.4334046365    1.6387585334    1.4708292578
N       -1.1025559905   -1.5916537966   -0.0781027166
N       -0.6312440551    0.5520010444    0.5280029245
O        0.9815182205    1.0721979271   -1.0479315519
O        1.8207763719   -3.6470669583   -2.7384645352
H        1.2697708164   -6.2479880712   -0.7935231933
H       -0.1033386230   -3.9729278628   -0.0847184561
H        2.6884232757   -5.6355498864   -2.9265767119
H       -1.9696063982   -0.7654409302    1.6588902825
H        1.0597431723   -1.1853582252   -2.6709889908
H       -0.2419343497    1.2452153004    2.4740470724
H       -1.3203179852    2.2795464730    1.4958558915
H        0.4256403873    2.2512356331    1.1773545077
21   

C        1.2380747976   -5.3674747959   -1.4160002973
C        0.6021409444   -4.1600440338   -0.9538254155
C        1.9897366370   -5.0099364025   -2.4991791344
C        1.0163809081   -3.1569433341   -1.7917405895
C       -1.1846068370   -0.6522012579    0.9156917231
C       -0.0276395550   -1.1017953994   -0.8594618085
C        0.1912724025    0.3351383300   -0.5257167381
C        0.7064479559   -1.7654612311   -1.7974803978
C       -0.5356539706    1.7454609327    1.4172988397
N       -0.8755241426   -1.6395963028    0.1025105089
N       -0.6038207180    0.5719283314    0.5648115748
O        0.9413752761    1.1416323849   -1.0610311249
O        1.8673394896   -3.6657263755   -2.7442604256
H        1.1443552561   -6.3617941751   -0.9952910210
H       -0.0715736343   -4.0617049190   -0.1108529314
H        2.5988988564   -5.6883935188   -3.0853107735
H       -1.8251330047   -0.7829451945    1.7811248698
H        1.2440229803   -1.1668083120   -2.5230561615
H       -0.3154801331    1.4560498517    2.4496335109
H       -1.4864751787    2.2867121989    1.3871443982
H        0.2563492844    2.4214135683    1.0781783225
21   

C        1.1766947065   -5.4045642642   -1.5224853153
C        0.6279250696   -4.1929362911   -0.9688729844
C        1.9335731556   -5.0235271100   -2.5937984935
C        1.0934483572   -3.1636478955   -1.7463287572
C       -1.0420281356   -0.6661877416    1.0495913441
C        0.1563502290   -1.1150645550   -0.6984757139
C        0.2236640411    0.3550584044   -0.4688024552
C        0.8749749127   -1.7572185426   -1.6600501781
C       -0.6661395746    1.8223551091    1.3640781266
N       -0.6364682913   -1.6694423891    0.3008489033
N       -0.5854443134    0.5823510197    0.6131415911
O        0.8686330677    1.1991364421   -1.0780510591
O        1.8952916616   -3.6607525405   -2.7465931993
H        1.0244907054   -6.4169158323   -1.1669234468
H       -0.0247606975   -4.1102082823   -0.1079270034
H        2.4881004060   -5.6985385282   -3.2355011646
H       -1.6686769203   -0.8012068991    1.9244723485
H        1.4028720926   -1.1447404324   -2.3812428256
H       -0.4238212283    1.6477662799    2.4170296891
H       -1.6740769024    2.2422506133    1.2882226491
H        0.0437765430    2.5569070034    0.9695880592
21   

C        1.0841370859   -5.4207244209   -1.6015070437
C        0.6438699357   -4.2067347213   -0.9627742949
C        1.8393175768   -5.0340026572   -2.6719130193
C        1.1653278767   -3.1702927764   -1.6940472391
C       -0.8619062607   -0.6730894370    1.1899356118
C        0.3671646459   -1.1233858263   -0.5374079831
C        0.2901810185    0.3585149198   -0.4129051289
C        1.0559224634   -1.7584923616   -1.5241054217
C       -0.7862278234    1.8642638944    1.2893844781
N       -0.3686643365   -1.6815822568    0.5033078986
N       -0.5203064260    0.5791673933    0.6688398457
O        0.8211952860    1.2179736011   -1.1049615264
O        1.9006300402   -3.6654845005   -2.7451599104
H        0.8648231611   -6.4382703960   -1.2999339299
H        0.0227794052   -4.1276727972   -0.0784567443
H        2.3237535655   -5.7090560381   -3.3680051303
H       -1.4748354456   -0.8065309398    2.0747109520
H        1.5716001282   -1.1424757205   -2.2511263656
H       -0.5300823431    1.8341390423    2.3530226429
H       -1.8434020255    2.1247243935    1.1769564554
H       -0.1858818577    2.6490725452    0.8173200795
