27   

C        2.4559103934    1.0351434893   -0.4441464833
C        1.4366247373    0.2110167130   -0.9051934529
C        0.6561103174   -4.0788347384   -1.5657773904
C        2.2728155666    1.7754352301    0.7242246186
C        1.5952384577   -2.6943461989   -0.0816760992
C        0.4730904664   -2.8253622324   -0.8622485340
C        0.2588087492    0.1349729432   -0.1553118710
C        0.1325366575    0.9624270369    0.9990383292
C        1.8550173386   -4.5920013902   -1.1634548123
C       -0.7348448637   -1.9778032921   -1.0471709078
C       -2.1356846977   -0.1075609956   -0.2169099848
C       -2.1293165566    0.1582062256    1.2922107883
N        1.1355182923    1.7443183423    1.4262917464
N       -0.8320757765   -0.6677296244   -0.5579843192
O       -1.7234988655   -2.4605738505   -1.6018475186
O        2.4494233056   -3.7541897637   -0.2577993932
O       -1.0464885894    1.0099148195    1.7188822469
Br       2.6015497775   -6.2423647941   -1.7634591988
H        3.3916349910    1.1183175609   -0.9835567361
H        1.5558165517   -0.3496000127   -1.8272261701
H       -0.0346636743   -4.5302197941   -2.2713551059
H        3.0788828851    2.4101187046    1.0740016645
H        1.7938289343   -1.8850879473    0.6107982553
H       -2.9597960706   -0.7852979517   -0.4616667185
H       -2.2962123934    0.8260249908   -0.7659964807
H       -3.0804124033    0.6191831196    1.5759830442
H       -2.0555293109   -0.7965565300    1.8229514512
27   

C        2.4716917477    0.9212681350   -0.4462329697
C        1.4364997612    0.1098899445   -0.8932699665
C        0.7617352486   -3.9594502026   -1.7272032435
C        2.2929217008    1.7076866308    0.6916924360
C        1.4512520578   -2.7821613440    0.0481165459
C        0.4406688394   -2.8329804391   -0.8773501237
C        0.2437537940    0.0949923915   -0.1624171621
C        0.1279755029    0.9616612554    0.9644902867
C        1.9315334087   -4.4857883544   -1.2592394083
C       -0.7867114330   -2.0086418702   -1.0270931651
C       -2.1599881382   -0.1052444991   -0.2209400375
C       -2.1453370978    0.2036560130    1.2792887850
N        1.1462042605    1.7309925393    1.3784023391
N       -0.8653267546   -0.6916566888   -0.5536229248
O       -1.7945065342   -2.5112702930   -1.5253022508
O        2.3757621091   -3.7714707690   -0.1771450806
O       -1.0540088405    1.0588216529    1.6739919477
Br       2.8217094077   -6.0069288291   -1.9903626378
H        3.4167040324    0.9589174932   -0.9744169564
H        1.5565531195   -0.4841867230   -1.7938419466
H        0.1756473449   -4.3273356471   -2.5635506594
H        3.1111719181    2.3329719241    1.0299029922
H        1.5167045630   -2.0714798676    0.8643831400
H       -2.9940136649   -0.7788389294   -0.4422486034
H       -2.3117954043    0.8143291884   -0.7954841324
H       -3.0911137001    0.6809439269    1.5536415726
H       -2.0767457534   -0.7356418714    1.8376414351
27   

C        2.4571414421    0.8715231597   -0.4726156059
C        1.4120132804    0.0647225353   -0.9037713570
C        0.8789899519   -3.7755189513   -1.8792514738
C        2.2868042483    1.6856903480    0.6463539870
C        1.3265356065   -2.8657767764    0.1195690725
C        0.4210063895   -2.8098804713   -0.9054660756
C        0.2156744994    0.0827487823   -0.1776652551
C        0.1120881670    0.9734892297    0.9320863929
C        2.0248746630   -4.3225368372   -1.3756685929
C       -0.8359345832   -2.0217124363   -1.0067229410
C       -2.1938060180   -0.0989169951   -0.2158436919
C       -2.1630293736    0.2377029239    1.2776354443
N        1.1395473042    1.7389998950    1.3302499695
N       -0.9055331530   -0.6971344643   -0.5537983586
O       -1.8608175294   -2.5567581415   -1.4279679523
O        2.3228656246   -3.7688493108   -0.1569050902
O       -1.0664540121    1.0984122880    1.6427201283
Br       3.0615520404   -5.6776851568   -2.2297832827
H        3.4035441480    0.8838831231   -0.9994544983
H        1.5294047047   -0.5481832652   -1.7916514932
H        0.3954637580   -4.0341990017   -2.8157871785
H        3.1126839649    2.3078651961    0.9714896748
H        1.2666479728   -2.2846136407    1.0332710431
H       -3.0337345408   -0.7717258631   -0.4159105323
H       -2.3480658164    0.8108059216   -0.8051824221
H       -3.1048383189    0.7222191400    1.5529225095
H       -2.0898381799   -0.6908099305    1.8531396065
27   

C        2.4634675709    0.7909331079   -0.4623611781
C        1.4065181694   -0.0133934058   -0.8678804286
C        0.9871882772   -3.6237068915   -1.8723142143
C        2.3014452543    1.6517752401    0.6217799114
C        1.1914135193   -3.0201275735    0.2780025072
C        0.3974508850   -2.8307478625   -0.8175879479
C        0.2051382252    0.0536512795   -0.1518902837
C        0.1132020528    0.9887269644    0.9224592323
C        2.0979697626   -4.2117783310   -1.3365302404
C       -0.8776963695   -2.0641840818   -0.8981090442
C       -2.2091613172   -0.0917469656   -0.1848664096
C       -2.1722477871    0.3013119189    1.2941511236
N        1.1515692310    1.7523949920    1.2955719939
N       -0.9300490363   -0.7203677861   -0.5031472157
O       -1.9176971618   -2.6248877223   -1.2379990768
O        2.2475769016   -3.8441284901   -0.0233687107
O       -1.0649451745    1.1619924471    1.6234261907
Br       3.2719386666   -5.3918931930   -2.2690449386
H        3.4128288302    0.7650273855   -0.9832827428
H        1.5213050776   -0.6592004210   -1.7318287627
H        0.6124324927   -3.7497945715   -2.8827783493
H        3.1364910656    2.2720153395    0.9265406499
H        1.0127074834   -2.5843121142    1.2548507312
H       -3.0595199162   -0.7585771626   -0.3588321423
H       -2.3516025043    0.7971626823   -0.8079570623
H       -3.1074352810    0.8080635380    1.5513412944
H       -2.1094409892   -0.6049689829    1.9051400115
27   

C        2.4431816906    0.7494769413   -0.5008565125
C        1.3707918098   -0.0473780672   -0.8796119137
C        1.0170334563   -3.4676111975   -1.8631004591
C        2.3043345227    1.6341121072    0.5669445521
C        1.0684362295   -3.1764234084    0.3602748619
C        0.3463587292   -2.8394739172   -0.7468406872
C        0.1776467366    0.0501197131   -0.1537456254
C        0.1103094844    1.0082975934    0.9023738904
C        2.1032034315   -4.1131629780   -1.3430905336
C       -0.9420306558   -2.0837557990   -0.7849409179
C       -2.2371092734   -0.0575276771   -0.1598743268
C       -2.1822931758    0.3648743311    1.3100600672
N        1.1626565915    1.7654162863    1.2491082105
N       -0.9721552545   -0.7170725572   -0.4732955733
O       -2.0006725493   -2.6673462019   -1.0039991188
O        2.1592745181   -3.9363573202    0.0161299969
O       -1.0577137631    1.2130349967    1.6120538409
Br       3.3608915602   -5.1312459657   -2.3540492103
H        3.3869077145    0.6989192657   -1.0300587027
H        1.4685970090   -0.7095669941   -1.7321964419
H        0.7123286940   -3.4529306083   -2.9042537794
H        3.1512471103    2.2480708223    0.8509534105
H        0.8158702758   -2.8885451992    1.3747953007
H       -3.1026069973   -0.7086509589   -0.3174112961
H       -2.3654925890    0.8215599894   -0.7997614269
H       -3.1064187565    0.8934369556    1.5632021926
H       -2.1305257451   -0.5295616276    1.9392358269
27   

C        2.4467353751    0.6695239891   -0.5529660514
C        1.3515244527   -0.1098492459   -0.9020694862
C        0.9600781786   -3.3833575664   -1.8471870899
C        2.3452829587    1.5703642667    0.5053518366
C        0.9707426780   -3.3846212515    0.3945674313
C        0.2776698084   -2.8912907385   -0.6699280488
C        0.1747280965    0.0200086980   -0.1564466063
C        0.1454269056    0.9946333816    0.8869151547
C        2.0281589893   -4.1064899256   -1.3967754703
C       -1.0047449091   -2.1208092699   -0.6272724720
C       -2.2361291535   -0.0214268012   -0.1329316489
C       -2.1609351128    0.4212364051    1.3296041407
N        1.2186234606    1.7350594755    1.2046897949
N       -0.9958141763   -0.7305238894   -0.4377134094
O       -2.0853172415   -2.7023094449   -0.6733534962
O        2.0588337791   -4.1096453411   -0.0257215669
O       -1.0063100702    1.2355177704    1.6123963016
Br       3.2949897841   -4.9986302953   -2.5100794286
H        3.3796860366    0.5926701760   -1.0977964547
H        1.4199075608   -0.7815889457   -1.7484838421
H        0.6776696096   -3.2295203796   -2.8832573276
H        3.2095622949    2.1700504722    0.7665887420
H        0.6992864327   -3.2313696234    1.4331583927
H       -3.1260954646   -0.6403282609   -0.2837450673
H       -2.3328396021    0.8523164258   -0.7856590319
H       -3.0652708115    0.9853658735    1.5772994403
H       -2.1373198151   -0.4646711062    1.9723916111
27   

C        2.2301542636    1.6174760827   -0.1013052377
C        1.5637611938    0.4424614425    0.2214267113
C        1.0566316222   -1.6832910859   -2.3093443270
C        1.5026032379    2.7389217436   -0.4959056324
C        2.0106590930   -2.8991593359   -0.6836494761
C        0.8692632937   -2.2134426087   -0.9767355599
C        0.1685799892    0.4174999085    0.1180268514
C       -0.5000260119    1.6209842713   -0.2585523001
C        2.2981476559   -2.0874212744   -2.7108016927
C       -0.3122911924   -2.0128148807   -0.0843297102
C       -1.9208064469   -0.4378268143    0.9644730888
C       -2.6207243510    0.4835799415   -0.0376067830
N        0.1680239659    2.7437035590   -0.5659612184
N       -0.5965295720   -0.7365038875    0.4250838699
O       -1.1123461569   -2.9198301643    0.1307817775
O        2.8999644850   -2.8321535529   -1.7277456995
O       -1.8797547723    1.6899943688   -0.3065069835
Br       3.0952624625   -1.6698806889   -4.3930528570
H        3.3101512626    1.6774724844   -0.0456017630
H        2.1251832084   -0.4208774410    0.5567858887
H        0.3598022870   -1.0783565658   -2.8799710634
H        2.0375631606    3.6475515393   -0.7470526541
H        2.1965864693   -3.4197571329    0.2492516534
H       -1.8230355311    0.0639648595    1.9326176301
H       -2.5267061585   -1.3356525865    1.1211339681
H       -2.7722769598   -0.0571972928   -0.9775241738
H       -3.6075442934    0.7502672684    0.3527654902
27   

C        2.1263795190    1.7001814711   -0.3836299323
C        1.5014975098    0.4988490135   -0.0755944472
C        0.8006277715   -1.4151638107   -2.5619707501
C        1.3590256802    2.8439951368   -0.5959162367
C        1.7751605004   -2.9532407808   -1.2477093795
C        0.6989997579   -2.1155184366   -1.2998871418
C        0.1034845908    0.4717759343   -0.0084015220
C       -0.6026249193    1.6964922904   -0.2046862873
C        1.9353667608   -1.8787294069   -3.1649880385
C       -0.3403489719   -1.9698123172   -0.2406036901
C       -1.8787964314   -0.4676480890    1.0048615975
C       -2.6832556355    0.5284919165    0.1658770305
N        0.0258872076    2.8444424775   -0.5023952266
N       -0.6184572658   -0.7082685788    0.3066601801
O       -1.0294220677   -2.9255795242    0.1109736875
O        2.5481916928   -2.8191611897   -2.3750471715
O       -1.9772759092    1.7601314642   -0.0786297727
Br       2.5891370637   -1.2972752013   -4.8603173149
H        3.2052564741    1.7628521741   -0.4557725733
H        2.0983510995   -0.3848004666    0.1173396959
H        0.1222408751   -0.6648565749   -2.9545958744
H        1.8616831125    3.7734217281   -0.8375129930
H        1.9941856588   -3.6282792039   -0.4276528867
H       -1.6802382728   -0.0506814089    1.9974842834
H       -2.4662513231   -1.3808417935    1.1417351216
H       -2.9351934934    0.0678490511   -0.7949011986
H       -3.6223367624    0.7517215908    0.6813264965
27   

C        2.0454125666    2.2284701611    0.3894756569
C        1.5996723746    0.9175714227    0.4961050617
C        1.8309802644   -0.8331188120   -2.0817195662
C        1.1413730931    3.2428689245    0.0795004609
C        2.6322404356   -2.5340160297   -0.8506429574
C        1.5436619145   -1.7172730717   -0.9719578377
C        0.2445638609    0.6528377917    0.2649604277
C       -0.6185273442    1.7551600252   -0.0110293093
C        3.0765979297   -1.1738665390   -2.5275055713
C        0.3290972189   -1.8118124319   -0.1172267022
C       -1.6957330795   -0.6921581087    0.7873416973
C       -2.4833075552    0.2284014961   -0.1489200580
N       -0.1614534331    3.0132065171   -0.1106551406
N       -0.2984176327   -0.6536951524    0.3645220776
O       -0.1856667723   -2.9017984157    0.1307515879
O        3.5861637292   -2.2093272400   -1.7843272567
O       -1.9793490391    1.5776332520   -0.1718294534
Br       3.9884844708   -0.3292753899   -3.9748690619
H        3.0876244246    2.4756115678    0.5502301849
H        2.2956780134    0.1303277263    0.7630415497
H        1.1949885648   -0.0506905848   -2.4828359470
H        1.5053819036    4.2605436778   -0.0023435062
H        2.7310506244   -3.3287873470   -0.1191944962
H       -1.7817148418   -0.3424491147    1.8212149749
H       -2.1206780987   -1.6997032881    0.7402901980
H       -2.4494152124   -0.1786692388   -1.1647323244
H       -3.5313269919    0.2441044602    0.1654618409
27   

C        2.2551694059    1.7077961786    0.2906611130
C        1.6049843945    0.5099192510    0.5573188341
C        1.9307216252   -1.6985501932   -1.5443749095
C        1.5612928877    2.7490290716   -0.3236349260
C        2.0959533606   -3.4443754315   -0.1382302824
C        1.3037925951   -2.3655411756   -0.4213422423
C        0.2646768781    0.3801782705    0.1756936104
C       -0.3808476832    1.5083458183   -0.4123106232
C        3.0633280380   -2.4085373981   -1.8263983584
C        0.0222769917   -2.1031460243    0.2842891723
C       -1.9044057666   -0.5781995399    0.6435555833
C       -2.4282420988    0.2355893193   -0.5433579901
N        0.2718318694    2.6541719527   -0.6625388057
N       -0.4783427253   -0.8009088965    0.4241464060
O       -0.6524201854   -3.0356222783    0.7230644259
O        3.1867204894   -3.4759599567   -0.9728416882
O       -1.7240415615    1.4777274195   -0.7350987879
Br       4.3019304104   -1.9835335499   -3.2139020522
H        3.2950461361    1.8472255810    0.5596675968
H        2.1328815573   -0.2947478285    1.0575014877
H        1.5809858087   -0.8147561852   -2.0680740909
H        2.0835151914    3.6766947309   -0.5275471716
H        1.8908111546   -4.1777950173    0.6342849298
H       -2.0563254246   -0.0265686614    1.5769632362
H       -2.4676184572   -1.5142316078    0.7125021765
H       -2.3408562714   -0.3636115621   -1.4555165437
H       -3.4905784026    0.4476293112   -0.3886315442
27   

C        2.1042434793    2.0857942047    0.5773565766
C        1.5642194736    0.8194837889    0.7611971131
C        2.1741106312   -1.2506235830   -1.3808630275
C        1.3264576922    3.0929971923    0.0080854235
C        2.2635820606   -3.2101070061   -0.2842429381
C        1.5226408873   -2.0611816056   -0.3701565069
C        0.2489384489    0.5897411732    0.3422967905
C       -0.4903367880    1.6864700744   -0.1919648024
C        3.2717193286   -1.9545179823   -1.7883878621
C        0.2394416862   -1.9101261312    0.3632556101
C       -1.8274821176   -0.5855240104    0.7256146016
C       -2.4130552376    0.2441322952   -0.4212126758
N        0.0570258856    2.8999723567   -0.3632819324
N       -0.3855662351   -0.6648117470    0.5144505708
O       -0.3231616892   -2.8980220499    0.8392607729
O        3.3502626883   -3.1510806551   -1.1224932592
O       -1.8216435162    1.5528018334   -0.5371145054
Br       4.5154192675   -1.3688557223   -3.1114176292
H        3.1217059264    2.3046709339    0.8773983224
H        2.1550237902    0.0377951679    1.2268927497
H        1.8605640542   -0.2848262365   -1.7632579307
H        1.7630357551    4.0752753635   -0.1311356952
H        2.0249400642   -4.0571382757    0.3502830210
H       -2.0381504518   -0.1054190142    1.6867464348
H       -2.3010267157   -1.5724982254    0.7312193430
H       -2.2657080030   -0.2929304507   -1.3638054686
H       -3.4912685991    0.3517339584   -0.2682240521
27   

C        2.3535939458    1.8422696415   -0.4804129106
C        1.5402192580    0.7873495807   -0.8745834050
C        2.1590375641   -1.9241169687    0.3503007484
C        1.9277620595    2.7032768810    0.5306090187
C        1.3887264879   -3.6127286648   -0.9143624988
C        1.0961087892   -2.3214185667   -0.5555801647
C        0.3184908986    0.6101666398   -0.2171812164
C       -0.0620807149    1.5630461090    0.7730272626
C        3.0228850032   -2.9801100815    0.4188585233
C       -0.2114801005   -1.7240833468   -0.9375628832
C       -1.9870911783   -0.0758718278   -0.4081754313
C       -2.1673412081    0.4074009052    1.0347703915
N        0.7451365011    2.5707717696    1.1395680395
N       -0.5798464092   -0.4219602505   -0.5754404295
O       -1.0283310265   -2.3917337384   -1.5756158390
O        2.5766644886   -4.0179881199   -0.3571085963
O       -1.3012914753    1.5058858617    1.3822950811
Br       4.6128889235   -3.0237008980    1.4726921746
H        3.3135511718    2.0105748594   -0.9529940984
H        1.8505084470    0.1251307609   -1.6763589588
H        2.2598837518   -0.9977009194    0.9047021755
H        2.5750664441    3.5196380747    0.8296288255
H        0.7673682081   -4.2410499577   -1.5439095812
H       -2.6477407133   -0.9304523883   -0.5864068552
H       -2.2631257191    0.7166872203   -1.1113133002
H       -3.2080246585    0.7130249968    1.1801322467
H       -1.9697482209   -0.4246741616    1.7182909054
27   

C        2.3869933451    1.7327766489   -0.4485088685
C        1.5520786700    0.6903115921   -0.8294670631
C        2.0352280128   -2.0047562244    0.4935623244
C        1.9652501657    2.6350295574    0.5269503399
C        1.4925105914   -3.5225807487   -1.0722985548
C        1.0552101383   -2.3484953684   -0.5185140411
C        0.3101365302    0.5670625872   -0.1964922284
C       -0.0604266364    1.5575266057    0.7608393504
C        2.9991196810   -2.9712664381    0.4381809181
C       -0.2666874435   -1.7698734242   -0.8720753403
C       -2.0121085363   -0.0731261914   -0.3897547612
C       -2.1909723172    0.4555471445    1.0367542799
N        0.7674964481    2.5530062445    1.1145486132
N       -0.6109361038   -0.4519607959   -0.5420873458
O       -1.1103521121   -2.4572747123   -1.4506326085
O        2.6912747436   -3.9032469542   -0.5199508865
O       -1.3086610276    1.5496212683    1.3534679304
Br       4.5499271881   -3.0319719110    1.5479136948
H        3.3610497277    1.8594674271   -0.9049348641
H        1.8630507200   -0.0003971424   -1.6061046016
H        2.0172599997   -1.1636092999    1.1787322057
H        2.6292595379    3.4417853310    0.8152019337
H        0.9645111728   -4.0836638100   -1.8361289770
H       -2.6898674883   -0.9185809114   -0.5454758429
H       -2.2699364523    0.7036516965   -1.1169386935
H       -3.2269689608    0.7827855191    1.1677403194
H       -2.0101006838   -0.3585404064    1.7460984327
27   

C        2.4783963002    1.3484321492   -0.3447358436
C        1.5556764638    0.3936866160   -0.7519222864
C        1.7748237939   -2.3547165659    0.5899999198
C        2.1362142534    2.2586224165    0.6539859883
C        1.3228314152   -3.6176222767   -1.2136926912
C        0.8356822240   -2.5612609668   -0.4937184315
C        0.3059397494    0.3640832099   -0.1224830726
C        0.0238770280    1.3566474067    0.8626498466
C        2.7655111309   -3.2796250646    0.4182241983
C       -0.4657813573   -1.9123995073   -0.8005690969
C       -2.0633136422   -0.0744173134   -0.3144034014
C       -2.1890708322    0.4282199196    1.1267613142
N        0.9352415625    2.2666281471    1.2406354912
N       -0.6994979087   -0.5657951774   -0.4874831462
O       -1.3866784194   -2.5618310757   -1.2979353571
O        2.5117438020   -4.0570036552   -0.6838072500
O       -1.2181940027    1.4382645701    1.4625595491
Br       4.2889232225   -3.4717578130    1.5505803998
H        3.4608231739    1.4001651452   -0.7978469559
H        1.8076569265   -0.3009595718   -1.5458456231
H        1.7147178180   -1.6199493376    1.3863492771
H        2.8683137382    2.9959443196    0.9626068231
H        0.8370136589   -4.0532756270   -2.0802691028
H       -2.8129882382   -0.8526411890   -0.4889775589
H       -2.2577091012    0.7415591951   -1.0179784805
H       -3.1938558597    0.8353251721    1.2755330613
H       -2.0704980800   -0.4166766247    1.8129102690
27   

C        2.4324465692    1.6108157277   -0.2707105442
C        1.6087612354    0.5550081535   -0.6384601291
C        1.8273996196   -2.0495597833    1.0798089011
C        1.9493773195    2.5984945047    0.5856620899
C        1.8319544537   -3.2759625070   -0.8033629504
C        1.0768531548   -2.3677677302   -0.1165150068
C        0.3118055866    0.5062433988   -0.1135132893
C       -0.1138896142    1.5778725306    0.7271951394
C        2.9824111990   -2.7757650447    1.0092327146
C       -0.2577527185   -1.8825736840   -0.5610110395
C       -2.0027396613   -0.1190194229   -0.4308315834
C       -2.2774012147    0.5267094217    0.9299928567
N        0.7034726699    2.5861064074    1.0691467819
N       -0.6006810707   -0.5274407601   -0.4466902140
O       -1.1085647162   -2.6669856154   -0.9798521902
O        3.0067499124   -3.5292025468   -0.1378832530
O       -1.4046925199    1.6361775454    1.2166223603
Br       4.3734500529   -2.7465950276    2.3145646661
H        3.4459756411    1.6814198695   -0.6460763874
H        1.9733790389   -0.1998391409   -1.3259274060
H        1.5421282294   -1.3687203511    1.8751973458
H        2.6053622423    3.4149674835    0.8647971902
H        1.5451456004   -3.7340459927   -1.7437563997
H       -2.6865721056   -0.9619436408   -0.5715881583
H       -2.1902127057    0.6000041062   -1.2348409100
H       -3.3151935669    0.8726773084    0.9571475815
H       -2.1600255114   -0.2270562488    1.7153362182
27   

C        2.4609853070    1.2188435312    0.3532102132
C        1.5824178506    0.2284706394   -0.0661328050
C        0.9726037968   -2.1144817942    2.0489158543
C        1.9648340337    2.3722218972    0.9580000270
C        1.4097770378   -3.4085873868    0.2666026006
C        0.5313179284   -2.4659790496    0.7164593656
C        0.2125746079    0.4145447053    0.1542758451
C       -0.2120977708    1.6408769778    0.7482387779
C        2.0877407825   -2.8652388000    2.2917597380
C       -0.6277457944   -1.9230713458   -0.0486464584
C       -2.0515193009    0.0371464602   -0.6007244789
C       -2.5044322319    0.9012365490    0.5789231348
N        0.6583915655    2.5820420810    1.1456083083
N       -0.7572000449   -0.5402184444   -0.2468656394
O       -1.5308834224   -2.6584041054   -0.4430041028
O        2.3738045499   -3.6621717472    1.2114772140
O       -1.5526064187    1.9249846463    0.9269290801
Br       3.1148839810   -2.8106758231    3.8985096382
H        3.5292727586    1.1103824917    0.2114154791
H        1.9646724602   -0.6561423466   -0.5617595174
H        0.5206992293   -1.3943877062    2.7231361352
H        2.6637026547    3.1349359982    1.2816007263
H        1.3583741718   -3.8882856378   -0.7046787648
H       -2.8116820043   -0.7237276501   -0.8031686365
H       -1.9509240461    0.6514319550   -1.5013465705
H       -3.4599944803    1.3723713856    0.3292770038
H       -2.6700079512    0.2602711729    1.4509961635
27   

C        2.4990215506    1.2137132676   -0.1370861552
C        1.5606560043    0.2810851698   -0.5597037141
C        1.2556345993   -2.4357739003    1.3595809544
C        2.1153155820    2.2378215273    0.7270463931
C        1.5458415046   -3.2071001642   -0.7267317654
C        0.6610800771   -2.5118927374    0.0432518535
C        0.2503509732    0.3902442155   -0.0812191886
C       -0.0654872369    1.4903545302    0.7715004304
C        2.4537710576   -3.0864680161    1.2763242623
C       -0.6336252736   -1.9108334344   -0.3984702757
C       -2.1034306659    0.0880941090   -0.5061862937
C       -2.3590159963    0.7336133880    0.8580101086
N        0.8607411048    2.3780144475    1.1657447352
N       -0.7742965240   -0.5157803110   -0.4559233044
O       -1.6230648122   -2.6072845595   -0.6105624752
O        2.6510182270   -3.5650457216    0.0053701237
O       -1.3558139383    1.7031173980    1.2193610004
Br       3.6898143968   -3.2939290207    2.7146739782
H        3.5269255616    1.1602813709   -0.4742113058
H        1.8497994646   -0.4980994411   -1.2542095979
H        0.8438787558   -1.9533096764    2.2398213517
H        2.8600346872    2.9561764668    1.0498829588
H        1.4026833916   -3.4389605471   -1.7763243216
H       -2.8917877028   -0.6402164060   -0.7202144996
H       -2.1368810089    0.8474590263   -1.2941662779
H       -3.3382459350    1.2216823832    0.8432896626
H       -2.3906433909   -0.0475446164    1.6245982932
27   

C        2.3745695696    1.0110168088    0.2934184083
C        1.5201889582   -0.0440011567    0.5862559893
C        1.8598793910   -3.4567971869    0.5847282070
C        1.8980212024    2.1094033962   -0.4195277442
C        1.3593169734   -2.8847797976   -1.5242594599
C        0.8600787442   -2.8361563108   -0.2572634838
C        0.1987830467    0.0207409345    0.1308874998
C       -0.2162614970    1.2001452792   -0.5591096206
C        2.8948435520   -3.7997947719   -0.2385523656
C       -0.5006478667   -2.3680094688    0.1542464646
C       -2.1184985607   -0.5198145198    0.5214110294
C       -2.4472432892    0.2862249809   -0.7367006464
N        0.6300472671    2.2057923867   -0.8300300700
N       -0.7479026481   -1.0056436939    0.3816794395
O       -1.4402620728   -3.1560445216    0.2176174318
O        2.6122910133   -3.4471125580   -1.5333577898
O       -1.5259597705    1.3698182728   -0.9674578600
Br       4.5032155555   -4.6587587724    0.3231776911
H        3.4076239572    0.9961082873    0.6185645483
H        1.8815989160   -0.8791594588    1.1729612281
H        1.8009650561   -3.6349266001    1.6532134919
H        2.5778484821    2.9238439663   -0.6417181185
H        0.8381025778   -2.5327477640   -2.4075797670
H       -2.1963566650    0.1183152026    1.4077302913
H       -2.8452466248   -1.3296915750    0.6387159639
H       -2.4355484843   -0.3813029881   -1.6043614757
H       -3.4595808933    0.6914103372   -0.6449653285
27   

C        2.3692315843    1.0425141035    0.2523465723
C        1.5217251875   -0.0110486274    0.5688361786
C        1.8514011342   -3.5713633376    0.5837545359
C        1.8831229208    2.1261953314   -0.4765882939
C        1.3704276319   -2.7278819763   -1.4382702664
C        0.8732864465   -2.8208125590   -0.1714222059
C        0.1961829121    0.0409414024    0.1213164299
C       -0.2279832130    1.2049315480   -0.5881053706
C        2.8712119144   -3.8503729502   -0.2817406395
C       -0.4637155455   -2.3542933068    0.3054128386
C       -2.1222829098   -0.5165059637    0.5180765966
C       -2.4478419807    0.2668026201   -0.7557302197
N        0.6124638935    2.2089303165   -0.8822738819
N       -0.7431659860   -0.9839152643    0.4044035693
O       -1.3606336980   -3.1623726954    0.5332638816
O        2.6011794820   -3.3312319585   -1.5225223685
O       -1.5399005532    1.3595203175   -0.9940324610
Br       4.4448398475   -4.8348773133    0.1595686060
H        3.4042475730    1.0379272803    0.5716441665
H        1.8914772737   -0.8366942807    1.1659305436
H        1.7854276663   -3.8755836213    1.6230596867
H        2.5577884091    2.9398744311   -0.7166286223
H        0.8636918426   -2.2476926046   -2.2680606074
H       -2.2231284584    0.1315255587    1.3947830948
H       -2.8376646066   -1.3370735877    0.6310621429
H       -2.4169073075   -0.4129621488   -1.6133508341
H       -3.4668422286    0.6587891370   -0.6818610889
27   

C        2.3514417416    1.1522162860    0.2411987521
C        1.5505928100    0.0672705386    0.5729472413
C        1.9289368093   -3.6841561403    0.5333031860
C        1.8168037552    2.2067061267   -0.4969559757
C        1.5425922255   -2.5238128568   -1.3466547309
C        0.9999725157   -2.7914229945   -0.1217265165
C        0.2218985032    0.0599573333    0.1313902770
C       -0.2544732273    1.1967782123   -0.5881592906
C        2.9649066897   -3.8686521469   -0.3381636519
C       -0.3251580783   -2.3569610362    0.4030609338
C       -2.0698725322   -0.5940552078    0.5451013585
C       -2.4316600865    0.1614404738   -0.7361835522
N        0.5421117863    2.2311928251   -0.8980766922
N       -0.6711666490   -0.9990747057    0.4347521688
O       -1.1619095309   -3.1917576508    0.7413747121
O        2.7530425853   -3.1557114637   -1.4908908451
O       -1.5736526092    1.2907913229   -0.9885751481
Br       4.4871038685   -4.9725073221   -0.0143134554
H        3.3870442425    1.1949596611    0.5558709670
H        1.9567216391   -0.7381269359    1.1754773296
H        1.8182967215   -4.1394429861    1.5120013084
H        2.4554079648    3.0455259490   -0.7488364177
H        1.0813054300   -1.9013350425   -2.1054957199
H       -2.2008387453    0.0561874874    1.4161489213
H       -2.7458606476   -1.4467966623    0.6630382860
H       -2.3718801418   -0.5250539657   -1.5869176280
H       -3.4670757044    0.5083158714   -0.6646830547
27   

C        2.3355755516    1.2246407457    0.2750497334
C        1.5523564952    0.1332834872    0.6280653832
C        1.8496505097   -3.8518638389    0.5140468126
C        1.7920806579    2.2422367917   -0.5079491970
C        1.6851612884   -2.3900706727   -1.1768883568
C        1.0395456683   -2.7889220987   -0.0376400848
C        0.2336702065    0.0833665987    0.1618521023
C       -0.2552505476    1.1849375184   -0.6018209982
C        2.9203881667   -3.9987196658   -0.3213137458
C       -0.2665460633   -2.3354370951    0.5099079826
C       -2.0467067695   -0.6051335192    0.5691892796
C       -2.4091580435    0.0994793439   -0.7411106737
N        0.5248190564    2.2252001233   -0.9328155509
N       -0.6393766289   -0.9845726268    0.4844820175
O       -1.0741326823   -3.1634821626    0.9297254437
O        2.8443844085   -3.1030818759   -1.3570757436
O       -1.5696494321    1.2357176634   -1.0253134183
Br       4.3192597090   -5.2769906909   -0.0981075464
H        3.3638433382    1.3013745889    0.6069636852
H        1.9614572352   -0.6466349235    1.2622019386
H        1.6377796415   -4.4362598888    1.4036559934
H        2.4168972493    3.0861727984   -0.7767757054
H        1.3303790462   -1.6214981468   -1.8548369476
H       -2.1998192046    0.0708724527    1.4167059315
H       -2.7058096160   -1.4679524163    0.7081342624
H       -2.3279641230   -0.6148537375   -1.5668430403
H       -3.4516596369    0.4285849449   -0.6918848000
27   

C        2.3355066794    1.2812768768    0.2626105561
C        1.5661695714    0.1836575001    0.6275023482
C        1.7303597120   -4.0113195064    0.3390379825
C        1.7838555935    2.2756403012   -0.5449814076
C        1.8085125264   -2.3033146436   -1.1065353859
C        1.0554591213   -2.7994676703   -0.0735383783
C        0.2549317004    0.1045312655    0.1464482993
C       -0.2459161675    1.1850995827   -0.6383836866
C        2.8291249182   -4.1427754522   -0.4608895428
C       -0.2168325830   -2.3180848574    0.5247686698
C       -2.0124610473   -0.6055711012    0.5662877333
C       -2.3876155868    0.0711139895   -0.7557113056
N        0.5210942822    2.2310326511   -0.9814670345
N       -0.6019659575   -0.9710939210    0.4791454317
O       -0.9953176843   -3.1315269204    1.0235448904
O        2.9002937713   -3.0997385899   -1.3471772341
O       -1.5590866819    1.2085820492   -1.0684409240
Br       4.0846098048   -5.5771098933   -0.3756501262
H        3.3588466410    1.3813066186    0.6035121388
H        1.9778246862   -0.5810791216    1.2787221700
H        1.4137437777   -4.6947318630    1.1207141678
H        2.3978748746    3.1242283577   -0.8238721712
H        1.5766024331   -1.4110727789   -1.6772955855
H       -2.1682361153    0.0840485758    1.4023026024
H       -2.6608760714   -1.4733416774    0.7238898035
H       -2.3051679828   -0.6587767744   -1.5676251752
H       -3.4326335130    0.3922772810   -0.7071484580
27   

C        2.2830754144    1.3628830979    0.3155046450
C        1.5324942351    0.2524913099    0.6822754003
C        1.5781031331   -4.1310510383    0.1306351987
C        1.7303708624    2.3228070659   -0.5329754494
C        1.9465048221   -2.2315432402   -0.9905979282
C        1.0577642164   -2.8005211823   -0.1117688077
C        0.2422761106    0.1257996343    0.1584956444
C       -0.2663066426    1.1764469594   -0.6602991134
C        2.7210524289   -4.2539462762   -0.6049371529
C       -0.1921616792   -2.3076855345    0.5259105968
C       -2.0092673666   -0.6204277234    0.5634453787
C       -2.3872648859    0.0194341226   -0.7766564532
N        0.4827100425    2.2346823065   -1.0051409170
N       -0.5932104342   -0.9648411081    0.4875388664
O       -0.9485438457   -3.1192320802    1.0621617301
O        2.9674614347   -3.0969803415   -1.2948911188
O       -1.5704200900    1.1580855522   -1.1181892959
Br       3.8207092190   -5.8117434321   -0.6759966873
H        3.2921627523    1.4996442051    0.6849648914
H        1.9404143866   -0.4888370681    1.3624921518
H        1.1366102249   -4.8908421537    0.7682560918
H        2.3299693978    3.1808045838   -0.8144551068
H        1.8633857725   -1.2422788988   -1.4243798707
H       -2.1781674104    0.0863776019    1.3824488467
H       -2.6446968601   -1.4941231060    0.7401463969
H       -2.2945336365   -0.7301496567   -1.5692712755
H       -3.4360334466    0.3297107014   -0.7390393106
27   

C        2.2413162855    1.4649827768    0.3595299561
C        1.5113363785    0.3469898551    0.7457513533
C        1.4452863848   -4.2049506139   -0.0257231175
C        1.6968506691    2.3643215120   -0.5585488009
C        2.1135462997   -2.2182404607   -0.7984640626
C        1.0918125494   -2.7991277640   -0.0861505554
C        0.2546876013    0.1496342939    0.1672860583
C       -0.2545492491    1.1464523326   -0.7151414557
C        2.6254342804   -4.3545715171   -0.6930562728
C       -0.1399917539   -2.2859837211    0.5757855766
C       -1.9818816314   -0.6290438323    0.5555308521
C       -2.3495119712   -0.0614097349   -0.8203299241
N        0.4742654733    2.2127304600   -1.0780046767
N       -0.5591717517   -0.9494511315    0.5138037207
O       -0.8783715200   -3.0868508506    1.1523681256
O        3.0528491313   -3.1464975178   -1.1727102204
O       -1.5425968128    1.0692572040   -1.2115450103
Br       3.5535705683   -6.0047352380   -0.9312173987
H        3.2274813189    1.6544162201    0.7657711878
H        1.9087037033   -0.3492360010    1.4778838379
H        0.8766720457   -4.9931612675    0.4584148163
H        2.2805996309    3.2280079724   -0.8555443102
H        2.1910347991   -1.1772848287   -1.0815303262
H       -2.1745236063    0.1134335624    1.3369345982
H       -2.6040628035   -1.5045879700    0.7669107398
H       -2.2371955482   -0.8489131411   -1.5725385348
H       -3.4025919238    0.2362465141   -0.8113962705
