21   
Generated by ForceBalance from scan.xyz: Frame 1 of 24
C        2.3855781240   -1.3183863231   -2.1636987800
C        1.2607883277   -0.4992484475   -2.0747219273
C        1.5158697131   -0.4305967701    0.3389129390
C        2.6408891352   -1.2729583615    0.2701117955
C        3.0517575518   -1.6929152501   -1.0003754046
C        0.8374785788   -0.0613776686   -0.8155201252
C        3.3139636016   -1.6221067690    1.5731110643
C        4.5313153508   -3.3477459544    3.0446872655
C        5.5708111653   -2.6401552672    2.2373544927
C        4.1604759833   -2.8410387623    1.6603539945
O        3.1456957669   -0.8863473128    2.5424516191
F        4.1558328944   -2.4689101768   -1.1457126188
Br      -0.7028557172    1.0716503024   -0.6895650453
H        2.7563093859   -1.6649333388   -3.1232713623
H        0.7268239216   -0.2022941011   -2.9712824197
H        1.2024256239   -0.0821686519    1.3169662184
H        4.6057738038   -4.4249858741    3.1571444319
H        4.0913338488   -2.8102102544    3.8777944190
H        5.8250730089   -1.6246243392    2.5232728740
H        6.3676993017   -3.2131266012    1.7739134154
H        4.0719189215   -3.5663381144    0.8624538017
21   
Generated by ForceBalance from scan.xyz: Frame 2 of 24
C        2.1515541784   -1.3543246223   -2.1918337611
C        0.9936634294   -0.5890376875   -2.0580103431
C        1.3835513591   -0.4382752448    0.3337730163
C        2.5425500248   -1.2281464572    0.2212372248
C        2.9007972128   -1.6622860409   -1.0601187259
C        0.6220051976   -0.1359953669   -0.7880345978
C        3.3015131834   -1.5109669411    1.4929910471
C        4.3072799968   -3.3426417724    2.9831139549
C        5.4549303665   -2.5999544473    2.3847228999
C        4.1490935289   -2.7273021094    1.5931410700
O        3.1675241065   -0.7451124057    2.4445861962
F        4.0349778794   -2.3843069139   -1.2498541497
Br      -0.9635469768    0.9241470291   -0.6012860395
H        2.4844034740   -1.7087725364   -3.1623407754
H        0.3949010509   -0.3442685383   -2.9290175449
H        1.1098756940   -0.0767120009    1.3189205696
H        4.3483863762   -4.4266688792    3.0243145913
H        3.7550904437   -2.8540726723    3.7788812838
H        5.6699788028   -1.6109329638    2.7758198350
H        6.3052723439   -3.1559112272    2.0026317372
H        4.1552705909   -3.4047418522    0.7506262025
21   
Generated by ForceBalance from scan.xyz: Frame 3 of 24
C        1.7851747200   -2.1279911120   -2.2282902411
C        0.8826435712   -1.0654498931   -2.2601239418
C        1.4369936375   -0.5392209065    0.0447341894
C        2.3677020910   -1.5933106712    0.0875942825
C        2.5108659065   -2.3722728098   -1.0661202069
C        0.7177169600   -0.2793613173   -1.1150432239
C        3.1050283345   -1.8037750217    1.3851333020
C        4.6675837994   -3.5471723289    2.4413832254
C        5.3497324925   -2.2240825642    2.5678006844
C        4.4345319573   -2.4679361525    1.3751768737
O        2.5962160658   -1.4002823059    2.4280250887
F        3.3559052817   -3.4346509521   -1.0768863448
Br      -0.5288163077    1.1756610525   -1.1521388226
H        1.9279662595   -2.7726673265   -3.0898687205
H        0.3128291538   -0.8574189207   -3.1596400889
H        1.3010072561    0.0555046082    0.9414284736
H        5.2421729439   -4.4143587034    2.1316938852
H        3.8291668786   -3.7454071555    3.1011639401
H        4.9738621917   -1.5360095758    3.3174706111
H        6.4119247509   -2.1635265382    2.3518593201
H        4.8989844611   -2.6358315684    0.4126903836
21   
Generated by ForceBalance from scan.xyz: Frame 4 of 24
C        1.7464316134   -1.9369232046   -2.0214360524
C        0.8453857585   -0.8729664479   -2.0089114224
C        1.5386142274   -0.3272788609    0.2523416032
C        2.4667450756   -1.3847486009    0.2519247229
C        2.5399076800   -2.1732562723   -0.9023918483
C        0.7510405269   -0.0754668157   -0.8635928764
C        3.2768170696   -1.5865094291    1.5070628954
C        4.6286363193   -3.6127587326    2.3050810999
C        5.4319782402   -2.4014122799    2.6703346708
C        4.5536036563   -2.3466151179    1.4382503271
O        2.8541186472   -1.1304081532    2.5660436633
F        3.3832153922   -3.2347335437   -0.9587113944
Br      -0.4909543971    1.3837066249   -0.8393756890
H        1.8376097154   -2.5885378133   -2.8848291698
H        0.2233129850   -0.6717421258   -2.8747343248
H        1.4596373701    0.2768984323    1.1495560949
H        5.1265513466   -4.4710694542    1.8655315387
H        3.7530000570   -3.8351261842    2.9066983195
H        5.0960879814   -1.8156658670    3.5192051551
H        6.5039017990   -2.4207233086    2.4991503087
H        5.0304882530   -2.4159310711    0.4685117624
21   
Generated by ForceBalance from scan.xyz: Frame 5 of 24
C        1.8002357113   -2.0274885885   -1.9936847617
C        0.8393363341   -1.0178108396   -1.9972682531
C        1.5704171830   -0.3330112184    0.2136502077
C        2.5542528165   -1.3397004455    0.2314492190
C        2.6402121961   -2.1710576688   -0.8924221695
C        0.7361292081   -0.1759714242   -0.8846887609
C        3.4064166286   -1.4355795654    1.4727818463
C        4.5312647614   -3.6177781194    2.1974262942
C        5.3939713299   -2.5064592962    2.7357101657
C        4.6334610800   -2.2807342641    1.4549141320
O        3.0382988820   -0.8555327751    2.4900601644
F        3.5466742992   -3.1787531313   -0.9429762898
Br      -0.5820724957    1.2148849270   -0.8835492894
H        1.9060678516   -2.7077315194   -2.8329743642
H        0.1809420208   -0.8904542237   -2.8502038646
H        1.4881422988    0.3071264090    1.0852607613
H        4.9975301569   -4.4750175591    1.7224559212
H        3.5967924995   -3.8230819358    2.7106273453
H        5.0375683820   -1.9688455585    3.6076652876
H        6.4715943684   -2.6082884241    2.6527424407
H        5.1765543450   -2.3187801642    0.5176199966
21   
Generated by ForceBalance from scan.xyz: Frame 6 of 24
C        1.9679864713   -1.8751876272   -2.0043726395
C        0.9919115307   -0.8806586177   -1.9895694421
C        1.7838937625   -0.1573740171    0.1873739873
C        2.7770429059   -1.1556700260    0.1925247951
C        2.8420390286   -1.9959238683   -0.9268134780
C        0.9131597483   -0.0253535686   -0.8851502244
C        3.6640921032   -1.2242495290    1.4128899480
C        4.3421563330   -3.5993124721    2.1024552049
C        5.3013369434   -2.6686392088    2.8120955639
C        4.7380105693   -2.2611289866    1.4815043554
O        3.4249443060   -0.4843138555    2.3613962062
F        3.7710663185   -2.9800621752   -1.0068315757
Br      -0.4188203858    1.3524809220   -0.8615632074
H        2.0631621087   -2.5590881237   -2.8419843646
H        0.3058519709   -0.7729808403   -2.8232218702
H        1.7257636849    0.4972171275    1.0500769256
H        4.7236759423   -4.4960336120    1.6247978881
H        3.3366110596   -3.6845559334    2.5043109593
H        4.9350638178   -2.1321407646    3.6808586848
H        6.3513280417   -2.9430394336    2.8441288385
H        5.3708129939   -2.3387415091    0.6036456715
21   
Generated by ForceBalance from scan.xyz: Frame 7 of 24
C        3.0506062108   -0.1852253170   -2.1595978541
C        2.6353820748    1.1449069468   -2.1181142138
C        3.4645631001    1.3188674826    0.1565364358
C        3.8797200411   -0.0260310527    0.1385907366
C        3.6632869709   -0.7469711822   -1.0426177207
C        2.8518131553    1.8870987929   -0.9520520828
C        4.5142200444   -0.5635818872    1.3983567790
C        3.4681040668   -2.8815673440    1.8548411261
C        4.5608130314   -2.6919929858    2.8925368180
C        4.6987732378   -2.0451100820    1.5464721037
O        4.7702177050    0.2108574920    2.3124089155
F        4.0647036460   -2.0370890076   -1.1499026211
Br       2.2963017307    3.7206315170   -0.8915323425
H        2.9107734851   -0.7919113114   -3.0488559631
H        2.1555418658    1.5962904933   -2.9802380948
H        3.6384370254    1.8880096653    1.0631571915
H        3.3752013664   -3.8381822237    1.3505425149
H        2.5292721113   -2.3587725255    2.0166097412
H        4.3532531218   -2.0371513605    3.7324919347
H        5.2085127728   -3.5342797251    3.1157897415
H        5.3841252668   -2.4876999398    0.8291035643
21   
Generated by ForceBalance from scan.xyz: Frame 8 of 24
C        3.3630711796    0.3241975215   -1.9605240543
C        3.0772989623    1.6811615887   -1.8101495037
C        4.0032921207    1.6183590211    0.4335764917
C        4.2786719526    0.2448504942    0.3067063430
C        3.9545524530   -0.3691688615   -0.9087031466
C        3.4051104504    2.3167137228   -0.6077787502
C        4.9029871030   -0.4503701196    1.4890526367
C        3.3565273557   -2.5379038296    1.7313962184
C        4.2960281433   -2.5388698316    2.9275241333
C        4.7421562901   -1.9416803312    1.6236634913
O        5.4512671493    0.2179364303    2.3552548955
F        4.2419874556   -1.6774358915   -1.1119253447
Br       3.0256949442    4.1840857814   -0.4000731423
H        3.1399460260   -0.1998655173   -2.8846518902
H        2.6124757012    2.2352795791   -2.6189249083
H        4.2689723710    2.1066207063    1.3648867941
H        3.1644054177   -3.4702780053    1.2099355663
H        2.5119225565   -1.8543941144    1.7625231821
H        4.0831203762   -1.8521104034    3.7408131954
H        4.7418775673   -3.4801576976    3.2341435431
H        5.4518233990   -2.5072056527    1.0236114238
21   
Generated by ForceBalance from scan.xyz: Frame 9 of 24
C        3.3456159482    0.3891599091   -1.8868446663
C        3.0679555274    1.7418829508   -1.6863896563
C        4.1057444762    1.6231408761    0.5064017458
C        4.3679286499    0.2532030240    0.3309923552
C        3.9858538229   -0.3298368761   -0.8822414708
C        3.4558044270    2.3470361152   -0.4864044327
C        5.0588760590   -0.4784871775    1.4502905326
C        3.3927717044   -2.5140165258    1.6051275534
C        4.1279356513   -2.4100638212    2.9274362317
C        4.7900416015   -1.9490065011    1.6501215423
O        5.7882767445    0.1413576232    2.2119300779
F        4.2724974201   -1.6300131285   -1.1288583208
Br       3.0886691080    4.2082526547   -0.2129726336
H        3.0803280191   -0.1095261238   -2.8139035765
H        2.5646324593    2.3166450885   -2.4567938175
H        4.4213597416    2.0907130848    1.4328728727
H        3.2541615788   -3.4917553735    1.1544964331
H        2.5718765062   -1.8216033706    1.4374641658
H        3.8078224449   -1.6453257646    3.6287934308
H        4.5026660625   -3.3173505885    3.3911217993
H        5.5875368098   -2.5775748746    1.2593591476
21   
Generated by ForceBalance from scan.xyz: Frame 10 of 24
C        9.2542030521    0.0854427335    0.4781027569
C        9.7437917916   -1.1893526236    0.7660362019
C        9.1515756819   -0.8818250032    3.1017770975
C        8.6839994885    0.4155767954    2.8315953395
C        8.7368816013    0.8646632480    1.5082817488
C        9.6844125229   -1.6615754779    2.0811733887
C        8.1179881550    1.2139616243    3.9753760072
C        9.5754943441    3.3736841260    3.4838330382
C        9.4457904790    3.1959094836    4.9770769737
C        8.3497804448    2.6988947450    4.0443993097
O        7.4991372122    0.6362663960    4.8588638379
F        8.2340670776    2.0803301399    1.1872905267
Br      10.3409029579   -3.4178690296    2.4783668715
H        9.2602041892    0.4759155519   -0.5348226518
H       10.1562150678   -1.8079147787   -0.0241853363
H        9.0860033172   -1.2523490870    4.1192179259
H        9.4524040009    4.3655007171    3.0600528193
H       10.3069913113    2.7554397153    2.9715586607
H       10.0732444058    2.4500884146    5.4564090299
H        9.2180304915    4.0576413873    5.5966364634
H        7.4226996266    3.2658099975    4.0672139453
21   
Generated by ForceBalance from scan.xyz: Frame 11 of 24
C        9.2879587714    0.0100140873    0.5396416233
C        9.7994944813   -1.2391602763    0.8959061650
C        9.1130178877   -0.8562738452    3.1947367109
C        8.6250983524    0.4157532336    2.8557138142
C        8.7148489201    0.8141261143    1.5194408535
C        9.7041929740   -1.6609786297    2.2253781536
C        7.9741947248    1.2414550841    3.9355985341
C        9.5102492066    3.3617696688    3.4491124176
C        9.5779509584    2.9970199168    4.9034086560
C        8.3160045850    2.6904648814    4.0859226647
O        7.1944691690    0.7012959098    4.7090467647
F        8.1934522666    2.0053814361    1.1386523234
Br      10.3879545245   -3.3825001301    2.7171385984
H        9.3198148141    0.3599301349   -0.4875434174
H       10.2550120062   -1.8772968315    0.1460228794
H        9.0164555632   -1.1940299503    4.2211827560
H        9.3959428629    4.4058977347    3.1748037722
H       10.1176577975    2.7832016266    2.7612339388
H       10.2063116088    2.1570929206    5.1856976822
H        9.4937864836    3.7727336759    5.6578162780
H        7.4528519415    3.3018485070    4.3309073424
21   
Generated by ForceBalance from scan.xyz: Frame 12 of 24
C        9.3429270746    0.2316060459    0.4149958172
C        9.9353471292   -0.9853898052    0.7576316275
C        9.1945145113   -0.6911815540    3.0540900899
C        8.6242650468    0.5483133315    2.7273961865
C        8.7031895844    0.9753449780    1.4010209682
C        9.8525808036   -1.4355460632    2.0782539139
C        7.8933848724    1.3136759387    3.8049913797
C        9.4084468391    3.4774718121    3.4423873717
C        9.6713793220    2.8789151829    4.7887545901
C        8.2925966574    2.7130119227    4.1231564422
O        7.0184705293    0.7480868302    4.4472652206
F        8.1073116704    2.1388767009    1.0396381949
Br      10.6458517348   -3.1147138770    2.5512116363
H        9.3642001911    0.6017451905   -0.6053735719
H       10.4434730924   -1.5774012875    0.0037862456
H        9.1102372425   -1.0567610079    4.0721760115
H        9.2730835795    4.5519416595    3.3670161730
H        9.8970871293    3.0276977416    2.5860569416
H       10.3089390478    2.0008138554    4.8348318677
H        9.7097883434    3.5166602741    5.6659992594
H        7.4897296305    3.2816831749    4.5813330603
21   
Generated by ForceBalance from scan.xyz: Frame 13 of 24
C        9.4966195703    0.4464977823    0.2548210726
C       10.1903040098   -0.7245845398    0.5662848227
C        9.4066497223   -0.5682209385    2.8631294890
C        8.7302185327    0.6235242055    2.5662480737
C        8.7839893030    1.0974996040    1.2561969393
C       10.1355100228   -1.2211814136    1.8712808986
C        7.9160962232    1.2895535004    3.6549271332
C        9.2979611586    3.5565193833    3.4571133939
C        9.7667014514    2.7910965029    4.6523203027
C        8.3185985313    2.6291496610    4.1556316325
O        6.9840518782    0.6769092852    4.1578163080
F        8.0941298607    2.2200040383    0.9291570018
Br      11.0668757353   -2.8394616085    2.3023578281
H        9.4964724379    0.8511298585   -0.7525910579
H       10.7552853055   -1.2457210815   -0.1992517514
H        9.3502288758   -0.9736117487    3.8680974409
H        9.0976669868    4.6179809171    3.5643220823
H        9.6790295016    3.2688391813    2.4850341524
H       10.4435941099    1.9587048920    4.4857041934
H        9.8921420179    3.3007148881    5.6022388603
H        7.5549551302    3.0825532454    4.7794397414
21   
Generated by ForceBalance from scan.xyz: Frame 14 of 24
C        9.2405425807    0.2423206048    0.3090020187
C        9.8381628682   -0.9634405381    0.6816772705
C        9.0474383791   -0.6418448053    2.9600666931
C        8.4598942620    0.5774478168    2.5973892829
C        8.5667767233    0.9875898004    1.2706045928
C        9.7332885013   -1.3931240175    2.0068672328
C        7.6766873619    1.3606129120    3.6340434169
C        9.2964042458    3.4470510298    3.5067052218
C        9.7852227523    2.5560736669    4.6018010604
C        8.2931329412    2.5650529434    4.2423483755
O        6.5848438239    0.9450496477    3.9945099045
F        7.9796722359    2.1527224425    0.8926787727
Br      10.5380735884   -3.0535047831    2.5235347902
H        9.2873230393    0.6029238211   -0.7139048007
H       10.3704659231   -1.5601724221   -0.0513152991
H        8.9590001545   -0.9953815401    3.9823626358
H        9.2109261157    4.5121231805    3.6971654381
H        9.5472383984    3.1913455118    2.4844584555
H       10.3597077971    1.6783066999    4.3237108844
H       10.0440758891    2.9883247238    5.5631133015
H        7.6291271292    3.0551832743    4.9472434720
21   
Generated by ForceBalance from scan.xyz: Frame 15 of 24
C        0.3868394362   -2.4213813508    1.4722926539
C       -0.3887085582   -2.3448262826    2.6306273560
C        1.2098673554   -3.7692674131    3.7849834620
C        2.0051663944   -3.8333035716    2.6323163567
C        1.5656017940   -3.1595332110    1.4951717114
C        0.0329093271   -3.0231661184    3.7773255035
C        3.2583649322   -4.6860418742    2.6497344663
C        4.8105401193   -2.8374368662    3.6177571375
C        4.8341996864   -2.6140641106    2.1404273165
C        4.5854495228   -4.0214715097    2.6656228047
O        3.1498063292   -5.9017033261    2.7244575820
F        2.3004897010   -3.2385322779    0.3557471177
Br      -1.0343721270   -2.9373791024    5.3664580100
H        0.0842829151   -1.9232853661    0.5563552555
H       -1.3102828081   -1.7726164555    2.6358733416
H        1.5172419431   -4.3083539668    4.6752851980
H        5.7438689885   -2.8436258452    4.1716851904
H        3.9511287466   -2.4736996309    4.1721936978
H        4.0071419892   -2.0804833525    1.6885802798
H        5.7912077977   -2.4595137026    1.6522597825
H        5.4011415036   -4.7330139848    2.5854218922
21   
Generated by ForceBalance from scan.xyz: Frame 16 of 24
C        1.2733719133   -1.3047887126    0.9441887931
C        0.6241467028   -0.6740077653    2.0073343321
C        1.7463019015   -2.1642628033    3.5668507282
C        2.4249050346   -2.7846757655    2.5079376632
C        2.1600568939   -2.3423320545    1.2121278672
C        0.8679021499   -1.1136326973    3.3112776368
C        3.3444736350   -3.9456758898    2.8143871914
C        5.5819493886   -2.7119282476    3.1816782683
C        5.4311467550   -2.7248095005    1.6916174065
C        4.7932067626   -3.8400116627    2.4962328713
O        2.8910760461   -4.9295444911    3.3830459921
F        2.7616361874   -2.9605100799    0.1644740643
Br      -0.0350283741   -0.2669607158    4.7741976241
H        1.0925150847   -1.0068070536   -0.0839676844
H       -0.0679547778    0.1400682570    1.8198605896
H        1.9118062840   -2.5165700906    4.5797080794
H        6.5292099907   -2.9931997722    3.6302917743
H        5.0124034914   -1.9742744382    3.7391252689
H        4.7872193841   -1.9784481842    1.2423119116
H        6.2841504186   -3.0075745002    1.0827956537
H        5.2832913515   -4.8085301304    2.4892022574
21   
Generated by ForceBalance from scan.xyz: Frame 17 of 24
C        1.3775717436   -1.2242535931    0.7567990099
C        0.6918803746   -0.5329099574    1.7574667742
C        1.7251001340   -1.9532507017    3.4374492401
C        2.4434797294   -2.6337357893    2.4424916554
C        2.2400906394   -2.2553266137    1.1140288868
C        0.8731909565   -0.9075738194    3.0918469059
C        3.3376722659   -3.7773993766    2.8539766849
C        5.7205035485   -2.8430943716    3.1315996928
C        5.4653536029   -2.7005312831    1.6581441831
C        4.7633359010   -3.8044165189    2.4138278519
O        2.8918498246   -4.6487769864    3.5884617136
F        2.8714827967   -2.9324090138    0.1235963317
Br      -0.0791006583    0.0254105609    4.4685615574
H        1.2430111344   -0.9784623121   -0.2920475527
H        0.0190979715    0.2779047153    1.4987676438
H        1.8439675759   -2.2586836808    4.4717343545
H        6.6588306109   -3.2636519343    3.4785349816
H        5.2816280212   -2.1015965888    3.7930119661
H        4.8818168056   -1.8466057985    1.3328130692
H        6.2388814006   -3.0073013814    0.9610973847
H        5.1388220669   -4.8166549976    2.2989335449
21   
Generated by ForceBalance from scan.xyz: Frame 18 of 24
C        1.5509928151   -1.1900898095    0.4333470353
C        0.8080538823   -0.4201271990    1.3299410352
C        1.6957833260   -1.7245719941    3.1766995911
C        2.4735677917   -2.4851170109    2.2884970473
C        2.3695750972   -2.2024304829    0.9235842547
C        0.8877605276   -0.6981540007    2.6979199693
C        3.3218320668   -3.5930856463    2.8556265212
C        5.8344006373   -3.0492484590    3.0859905305
C        5.5383034623   -2.7605619317    1.6362933482
C        4.7208399875   -3.8010507045    2.3578960549
O        2.8667537641   -4.2963077233    3.7477274115
F        3.0491252825   -2.9574883258    0.0274028383
Br      -0.1427720710    0.3459602907    3.9312391898
H        1.4937587189   -1.0206049417   -0.6374295906
H        0.1689440436    0.3773872078    0.9658493941
H        1.7407532902   -1.9567601559    4.2354736042
H        6.7207971900   -3.6175525630    3.3491262491
H        5.5400799571   -2.3042826671    3.8196898742
H        5.0689264796   -1.8094100530    1.4059128127
H        6.2308077418   -3.1134462018    0.8784578076
H        4.9352480349   -4.8464542139    2.1548735311
21   
Generated by ForceBalance from scan.xyz: Frame 19 of 24
C        1.5732586412   -1.2306399075    0.3503365369
C        0.7842341438   -0.4545267679    1.2005549938
C        1.6693970844   -1.6613055712    3.1134973679
C        2.4921010572   -2.4295485893    2.2721650734
C        2.4109903889   -2.1989192083    0.8948401856
C        0.8398508317   -0.6815360966    2.5795014546
C        3.3731833340   -3.4713339410    2.9075466273
C        5.9516526024   -3.2356589102    3.0468595635
C        5.5898584627   -2.7108202885    1.6760261852
C        4.7283417065   -3.7663552145    2.3197367734
O        2.9906356820   -4.0422972229    3.9197403112
F        3.1321986948   -2.9604638669    0.0385040404
Br      -0.2532330495    0.3721344911    3.7492951724
H        1.5380149027   -1.0998994058   -0.7267830532
H        0.1295816940    0.3088142931    0.7932437368
H        1.7023165876   -1.8529300933    4.1807120981
H        6.8006566087   -3.9042760765    3.1496506612
H        5.7852281611   -2.5860403837    3.9011941232
H        5.1958278921   -1.6999054561    1.6190525763
H        6.1948895619   -3.0040552086    0.8237600620
H        4.8066769473   -4.7820103245    1.9396484715
21   
Generated by ForceBalance from scan.xyz: Frame 20 of 24
C        1.4738994998   -1.2837985894    0.4231794231
C        0.6580979795   -0.5280766876    1.2659021090
C        1.6228420234   -1.6463442080    3.1931440786
C        2.4704870978   -2.3970262757    2.3594486814
C        2.3620435432   -2.1998813579    0.9783390879
C        0.7405257852   -0.7206699741    2.6489955924
C        3.4185015602   -3.3664846464    3.0141136886
C        6.0171143162   -3.4117948450    3.0225996874
C        5.6151654638   -2.6168956785    1.7979195830
C        4.7139306345   -3.7110048984    2.3215216980
O        3.1532303160   -3.8064837965    4.1242860657
F        3.1102168515   -2.9401667804    0.1261746990
Br      -0.3881447201    0.3066068789    3.8087850020
H        1.4227254169   -1.1771381919   -0.6559374715
H       -0.0364183739    0.1944320125    0.8501885319
H        1.6827922846   -1.8098424752    4.2637216546
H        6.8186307934   -4.1385957738    2.9317315032
H        5.9612770515   -2.9232141824    3.9906480977
H        5.3017254863   -1.5875266184    1.9519693366
H        6.1356577907   -2.7919267287    0.8615175236
H        4.6581034612   -4.6247214520    1.7338824613
21   
Generated by ForceBalance from scan.xyz: Frame 21 of 24
C        1.7517343003   -1.3181298680   -0.0660911328
C        0.8959754555   -0.4814364503    0.6496729048
C        1.7390508854   -1.4138569396    2.7266484647
C        2.6224335158   -2.2520041388    2.0217585117
C        2.5941986578   -2.1855741528    0.6234464217
C        0.8978387353   -0.5422720088    2.0473751713
C        3.5211218501   -3.1490638145    2.8355232034
C        6.0554915658   -3.7044977834    2.9388174425
C        5.8462369245   -2.7569334496    1.7784786466
C        4.7510438072   -3.7274373577    2.1891448170
O        3.2873819138   -3.3037575818    4.0271967550
F        3.3833560898   -2.9987499552   -0.1193556078
Br      -0.2870761624    0.5939341781    3.0369803846
H        1.7686886816   -1.3118182152   -1.1514939199
H        0.2349574667    0.2020556486    0.1270532334
H        1.7421987795   -1.4710681436    3.8096634094
H        6.7307516814   -4.5441249003    2.8036267634
H        6.0389527525   -3.2943767077    3.9435802854
H        5.6997623925   -1.7050503689    2.0100076443
H        6.3604575409   -2.9451255710    0.8411581106
H        4.5603582726   -4.5455377552    1.4997173154
21   
Generated by ForceBalance from scan.xyz: Frame 22 of 24
C        1.8709193967   -1.2312628176   -0.2171316844
C        0.9804813922   -0.3951526375    0.4541782519
C        1.8383859387   -1.2106214538    2.5715224444
C        2.7506605484   -2.0569047335    1.9124692211
C        2.7328711999   -2.0469373143    0.5117088355
C        0.9729014767   -0.3974486625    1.8532392015
C        3.6632333600   -2.8864550503    2.7844237979
C        6.0217068741   -3.9469660022    2.9131962744
C        6.0287046948   -2.9094822562    1.8183251243
C        4.7544449760   -3.6893513724    2.1453297393
O        3.5583151666   -2.8002824706    4.0027430784
F        3.5615337958   -2.8485204308   -0.2013201878
Br      -0.2583608646    0.7373333080    2.7864480110
H        1.9037301169   -1.2637068023   -1.3016621708
H        0.3027938623    0.2441333906   -0.1019691005
H        1.8415864911   -1.2171937104    3.6559464287
H        6.5333427202   -4.8872372080    2.7305890183
H        6.0464613772   -3.6036384835    3.9420175993
H        6.0648972742   -1.8641686327    2.1124889617
H        6.5177939812   -3.1345862620    0.8758167699
H        4.4400133367   -4.4002986928    1.3883565349
21   
Generated by ForceBalance from scan.xyz: Frame 23 of 24
C        1.8483517756   -1.1400334172   -0.2209223009
C        0.8990430892   -0.3799135941    0.4597556929
C        1.8496348870   -1.1061695817    2.5711609954
C        2.8136070363   -1.8855031126    1.9034889921
C        2.7802072203   -1.8796196698    0.5030000267
C        0.9103823522   -0.3736083073    1.8587379908
C        3.7971434996   -2.6369710134    2.7678691305
C        5.9295488262   -4.0913665519    2.9236519388
C        6.1450160584   -3.0453816198    1.8668425535
C        4.7400663955   -3.6043864487    2.1351718693
O        3.8530834406   -2.3736185757    3.9651085869
F        3.6791200367   -2.5952900854   -0.2170886517
Br      -0.3968312611    0.6642807459    2.8004193845
H        1.8768757865   -1.1676207530   -1.3057411518
H        0.1634817833    0.1981377121   -0.0897887637
H        1.8723226894   -1.0984975207    3.6554060067
H        6.2714807253   -5.1018878513    2.7215918927
H        5.9782848955   -3.7802494763    3.9614932232
H        6.3407786866   -2.0281439795    2.1928620579
H        6.6087121302   -3.3239524155    0.9258755223
H        4.3368644413   -4.2332704816    1.3498237497
21   
Generated by ForceBalance from scan.xyz: Frame 24 of 24
C        1.7696884081   -1.0763539557   -0.1906254889
C        0.7918046823   -0.3856955302    0.5235736929
C        1.8657101783   -1.0389427557    2.6006548924
C        2.8527757177   -1.7544104331    1.8974466322
C        2.7747717893   -1.7486025832    0.4994941233
C        0.8526687369   -0.3754959504    1.9211263822
C        3.9158878550   -2.4386571278    2.7189620047
C        5.8098654409   -4.1757510849    2.9392774085
C        6.2386937545   -3.1501268040    1.9352466819
C        4.7492814626   -3.5028213166    2.0964630056
O        4.0964709351   -2.0734121137    3.8774765053
F        3.7094805511   -2.3878636607   -0.2475710990
Br      -0.4867584469    0.5753071318    2.9078805697
H        1.7659098938   -1.0971963379   -1.2759376068
H       -0.0011686186    0.1387882361    0.0007963373
H        1.9276457105   -1.0229308652    3.6833256921
H        6.0079311161   -5.2213858288    2.7243529372
H        5.8339301989   -3.8956621703    3.9868448338
H        6.5469244818   -2.1777165676    2.3062264559
H        6.7135934294   -3.4699233244    1.0131928283
H        4.3109275609   -4.0554067734    1.2747658237
