24   

C       -1.2781316094   -1.2659326432    2.3558996172
C       -3.7704658007    0.3022864860    3.2429989429
C       -4.9904586694    0.8868078555    1.2460867111
C       -4.9035453392    0.6000842037    4.0100536117
C       -6.1162769574    1.1835528555    2.0224737659
C       -3.7937011450    0.4228059300    1.8364152359
C       -6.0854775026    1.0382893880    3.4100903985
C       -2.6854717471    0.1432730852    0.9320187222
C       -0.4559280822   -0.7175790899    0.1276006098
C       -1.5263417131   -0.5549163862    1.1402471041
C       -1.0324566394    0.8666811978   -3.0389184519
N       -1.0334125353   -1.8567777949    3.3295647544
N       -0.3204915036   -0.2232698052   -1.0864976930
O       -1.2756963229    0.6523564494   -1.6485714201
Cl      -7.4929711305    1.4058272443    4.3761368574
H       -2.8886317742    0.0053559878    3.7917385677
H       -5.0602632141    1.0115534936    0.1713311791
H       -4.8640946092    0.4952618076    5.0881814848
H       -7.0266495689    1.5292508694    1.5467671979
H       -2.8809221038    0.4903961524   -0.0686529290
H        0.3705340446   -1.3538504047    0.4251929151
H       -1.8512176894    1.4481149736   -3.4719872428
H       -0.9637277523   -0.0906594792   -3.5652407235
H       -0.0962266280    1.4162932579   -3.1748878558
24   

C       -1.4370485788   -1.3674264783    2.3135921953
C       -3.6799369610    0.5025447037    3.2273300177
C       -5.0665872739    0.7147059799    1.2621347233
C       -4.7930810408    0.7732096754    4.0322175364
C       -6.1729452374    0.9859036353    2.0754933517
C       -3.7981109251    0.4577746500    1.8240668906
C       -6.0477935724    1.0141363246    3.4665686683
C       -2.7027396075    0.1672812213    0.9032968785
C       -0.5344307212   -0.8381996487    0.1035012373
C       -1.6012822411   -0.6175782986    1.1064087115
C       -0.9013566379    0.9824932186   -2.9645175143
N       -1.2691777433   -1.9827275218    3.2882004133
N       -0.3377585917   -0.3005048642   -1.0828524910
O       -1.1973916536    0.6953225278   -1.5976881912
Cl      -7.4312342748    1.3494834481    4.4780147492
H       -2.7288256149    0.3545964816    3.7228720390
H       -5.2027362576    0.6943097144    0.1867022990
H       -4.6827229715    0.8004702732    5.1101123891
H       -7.1416148683    1.1739986147    1.6273368635
H       -2.9001455197    0.5056844374   -0.1014661191
H        0.2248735989   -1.5604324260    0.3830328382
H       -1.6611155741    1.6539536303   -3.3742054850
H       -0.8919513161    0.0601587451   -3.5540343739
H        0.0776616545    1.4647846579   -3.0420553944
24   

C       -1.5991339826   -1.4130341270    2.2555272641
C       -3.6268555509    0.6896158944    3.1728116500
C       -5.1322617909    0.5678907268    1.2889344638
C       -4.7156459740    0.9246391927    4.0206969228
C       -6.2155479532    0.8044201862    2.1435724036
C       -3.8174139897    0.5104993856    1.7909041406
C       -6.0178718865    0.9845258783    3.5157024486
C       -2.7281872320    0.2210183677    0.8545898188
C       -0.6435340102   -0.9400539068    0.0486612707
C       -1.6954988140   -0.6509689387    1.0481759948
C       -0.7882332112    1.0453804621   -2.9354867673
N       -1.4895791703   -2.0363179069    3.2332364785
N       -0.3925528921   -0.3866144698   -1.1196739426
O       -1.1579399896    0.6991842000   -1.6006942411
Cl      -7.3721617924    1.2766787010    4.5786808338
H       -2.6321804945    0.6612543210    3.6027772178
H       -5.3177564796    0.4207913726    0.2309040069
H       -4.5506792176    1.0609504114    5.0831816318
H       -7.2220872393    0.8447633081    1.7438790474
H       -2.9196167903    0.5711503297   -0.1482335481
H        0.0483629067   -1.7316674726    0.3148027677
H       -1.4819895348    1.7935384579   -3.3290298905
H       -0.8201336189    0.1616268578   -3.5806532255
H        0.2245825238    1.4591375906   -2.9480116248
24   

C       -1.7518895747   -1.4519591985    2.1933341686
C       -3.5937310274    0.8741181853    3.1105015439
C       -5.1726508497    0.4069260850    1.3454396928
C       -4.6544893398    1.0786799181    4.0006081336
C       -6.2292763027    0.6134737254    2.2405874470
C       -3.8387049712    0.5525955059    1.7658020581
C       -5.9805551984    0.9541252937    3.5741058090
C       -2.7520809865    0.2687134559    0.8132435211
C       -0.7571612603   -1.0257609003   -0.0111799759
C       -1.7896336607   -0.6794248021    0.9890873290
C       -0.6707247384    1.1059908926   -2.8953732284
N       -1.6921767435   -2.0864179768    3.1680862126
N       -0.4551415880   -0.4583218040   -1.1602575554
O       -1.1274410904    0.7024039506   -1.6043918969
Cl      -7.3010482680    1.2098770799    4.6877791242
H       -2.5748349027    0.9683249137    3.4697477814
H       -5.3909424939    0.1284963988    0.3206154470
H       -4.4496263812    1.3308605114    5.0345353091
H       -7.2535815123    0.5035579500    1.9041733216
H       -2.9304438664    0.6459097578   -0.1827623217
H       -0.1317634628   -1.8762345878    0.2372137959
H       -1.2939914497    1.9230881925   -3.2692497276
H       -0.7284135487    0.2687168873   -3.5981196669
H        0.3663344675    1.4496744140   -2.8352063846
24   

C       -1.9064536886   -1.5585767693    2.0808459242
C       -3.5779647991    1.0390678547    3.0225245433
C       -5.1808993591    0.2010525089    1.4263857924
C       -4.6077797537    1.2362302126    3.9500061079
C       -6.2077312499    0.3995245111    2.3573968327
C       -3.8562014732    0.5427831302    1.7410110205
C       -5.9319117931    0.9239234112    3.6246650453
C       -2.7725416628    0.2719534532    0.7684737499
C       -0.8528975102   -1.1059754960   -0.0954969039
C       -1.8775702890   -0.7419811384    0.9056471864
C       -0.5605141263    1.1794740323   -2.8450281201
N       -1.9046063302   -2.2349436983    3.0288245266
N       -0.4972893731   -0.5024201530   -1.2101602253
O       -1.0895786329    0.7193013675   -1.6015164556
Cl      -7.2150538163    1.1732642219    4.7825860552
H       -2.5558529100    1.2725806472    3.2994462764
H       -5.4141081085   -0.2211782711    0.4554370713
H       -4.3803650601    1.6287847768    4.9342098489
H       -7.2284536773    0.1405186396    2.1015273017
H       -2.9162751944    0.7251279559   -0.2013501458
H       -0.2861362138   -2.0050606146    0.1201221106
H       -1.1225778697    2.0538197172   -3.1848886371
H       -0.6364362803    0.3945624962   -3.6041602540
H        0.4907032448    1.4583227996   -2.7247644270
24   

C       -2.1254356202   -1.7787413851    1.9040757936
C       -3.6097717324    1.2638003241    2.9019942966
C       -5.1495685352   -0.0083291454    1.5500893830
C       -4.6310384733    1.5135369336    3.8265902506
C       -6.1683166648    0.2432857603    2.4769985201
C       -3.8589542731    0.5002980384    1.7545949253
C       -5.9190986287    1.0069413874    3.6225059021
C       -2.7809228899    0.2383431729    0.7674248840
C       -0.8697146771   -1.1465563172   -0.1158554614
C       -1.9584923745   -0.8398663736    0.8366322714
C       -0.4845340215    1.2011774082   -2.8020510187
N       -2.2379957262   -2.5588348105    2.7613363558
N       -0.4638321105   -0.5048650007   -1.1915558142
O       -1.0908867704    0.6869363471   -1.6165696829
Cl      -7.1914175639    1.3206554126    4.7767144414
H       -2.6165053361    1.6608555206    3.0790604899
H       -5.3598256727   -0.6059865186    0.6702101231
H       -4.4262995425    2.1025340531    4.7129397317
H       -7.1614643681   -0.1577130582    2.3118088460
H       -2.6925992098    0.9817209327   -0.0099485376
H       -0.3055668191   -2.0481228344    0.0962716224
H       -0.9863671538    2.1251765111   -3.1026191143
H       -0.5678609995    0.4728128935   -3.6145547987
H        0.5734454701    1.4155951522   -2.6221529870
24   

C       -2.3063134257   -1.9825941248    1.6969332089
C       -3.6717566737    1.4761765746    2.7343928388
C       -5.0763208709   -0.1945997034    1.7163771697
C       -4.6955018156    1.7836868052    3.6387551584
C       -6.0987423654    0.1147403933    2.6213236833
C       -3.8383306949    0.4617330580    1.7819738871
C       -5.9162896619    1.1028829750    3.5939834028
C       -2.7806753832    0.1955036753    0.7805720432
C       -0.8901392420   -1.1814812507   -0.1501969637
C       -2.0252426290   -0.9344989748    0.7637023620
C       -0.4536899393    1.2974087611   -2.7065781898
N       -2.5170817299   -2.8521927643    2.4422359132
N       -0.4522209183   -0.4806228603   -1.1750448947
O       -1.1127300856    0.6970038503   -1.5916048852
Cl      -7.1909655242    1.4861324492    4.7243284138
H       -2.7365077023    2.0225716832    2.7816051382
H       -5.2405967500   -0.9579880213    0.9639053418
H       -4.5464917346    2.5572047977    4.3830321163
H       -7.0433788295   -0.4140358291    2.5709423029
H       -2.4321745622    1.0721407128    0.2547359894
H       -0.3299636311   -2.0915042933    0.0344536190
H       -0.9050198673    2.2697449275   -2.9228683836
H       -0.5509414172    0.6571376871   -3.5885367657
H        0.6087570161    1.4428814091   -2.4870861562
24   

C       -2.4040607555   -2.0905859874    1.5690692023
C       -3.7329988211    1.6025729199    2.5981884385
C       -4.9901181546   -0.3179667533    1.8742243134
C       -4.7551958515    1.9314199621    3.4966926251
C       -6.0107878786    0.0125301627    2.7735565412
C       -3.8186970429    0.4536530014    1.7981605649
C       -5.9006015784    1.1364977907    3.5973297769
C       -2.7702458919    0.1739658063    0.8026811958
C       -0.9662601227   -1.2431526706   -0.2355165268
C       -2.0825399778   -0.9979280298    0.7024905639
C       -0.3866796320    1.3836339762   -2.6097743122
N       -2.6545775945   -2.9976036175    2.2551689218
N       -0.4946378108   -0.5007023067   -1.2152844425
O       -1.0914558430    0.7353618552   -1.5509467468
Cl      -7.1732006877    1.5466633880    4.7205321266
H       -2.8596617033    2.2416835734    2.5326965828
H       -5.1095467583   -1.1859585218    1.2351593631
H       -4.6640984862    2.8115997866    4.1223882858
H       -6.8989153852   -0.6057359685    2.8329385024
H       -2.3566153107    1.0568517369    0.3384457874
H       -0.4541786448   -2.1915742666   -0.1157120377
H       -0.7796675942    2.3943716393   -2.7507926781
H       -0.5100693128    0.8218860885   -3.5405827004
H        0.6798127719    1.4502100195   -2.3723447387
24   

C       -2.4674513921   -2.1954163845    1.4683319045
C       -3.8029008195    1.6722987782    2.4542638209
C       -4.9153170383   -0.4207628781    2.0429124787
C       -4.8094856305    2.0285675826    3.3595834134
C       -5.9198484785   -0.0618970269    2.9496679456
C       -3.8191535004    0.4288226513    1.8019796723
C       -5.8739391068    1.1625577368    3.6207851914
C       -2.7753754639    0.1255000407    0.8199558773
C       -1.0705508316   -1.3174799344   -0.3452190265
C       -2.1478895431   -1.0738024070    0.6391497175
C       -0.3382531400    1.4421321621   -2.5168277506
N       -2.7180213446   -3.1270503315    2.1207347333
N       -0.5806512436   -0.5442225004   -1.2919571354
O       -1.1077083535    0.7433216414   -1.5381543723
Cl      -7.1273953903    1.6073722277    4.7522873851
H       -2.9935149456    2.3694386307    2.2688543070
H       -5.0068948632   -1.3671528782    1.5225733579
H       -4.7687196662    2.9859262022    3.8658946703
H       -6.7475303428   -0.7374335849    3.1319730407
H       -2.3362511062    1.0043680066    0.3731558560
H       -0.6050011098   -2.2957189404   -0.2951833377
H       -0.6819248778    2.4779517247   -2.5867014690
H       -0.4523103226    0.9636078776   -3.4941408764
H        0.7209944531    1.4404096927   -2.2406452388
24   

C       -2.2733668562   -2.2025441303    1.9976942197
C       -3.9751268083    1.6758233174    2.9373670949
C       -4.7587528948   -0.4140081401    2.0437311949
C       -5.2721271465    1.9787941028    3.3673276918
C       -6.0545339734   -0.1074418815    2.4770079400
C       -3.6820258164    0.4639956177    2.2867020419
C       -6.3232990538    1.0877285615    3.1465548384
C       -2.3100903529    0.2317137599    1.8448447027
C       -0.2624552860   -1.0790281599    1.1797563018
C       -1.6589286615   -0.9563694792    1.6571434247
C        1.3756159607    2.0112715257    0.3903642928
N       -2.7484745909   -3.2341067967    2.2561510107
N        0.5913902402   -0.1690782868    0.7575999015
O        0.2365229301    1.1950067969    0.6634063661
Cl      -7.9409375441    1.4658749694    3.6846542984
H       -3.1855958082    2.3944261834    3.1264765352
H       -4.6279529431   -1.3376240208    1.4949523223
H       -5.4689826152    2.9142086724    3.8780455592
H       -6.8641901677   -0.8020089000    2.2851885041
H       -1.7247144833    1.1367213075    1.8119104872
H        0.1377037632   -2.0870049369    1.1664378765
H        1.0986025478    3.0670590449    0.4575115901
H        1.7503334583    1.8058972098   -0.6168526803
H        2.1712775261    1.8094513799    1.1146130579
24   

C       -2.2782477897   -2.2651928922    1.8152346504
C       -3.9961508318    1.7217362047    2.7601744273
C       -4.7500853089   -0.5027056508    2.2505015989
C       -5.2772665003    2.0542222467    3.2139071213
C       -6.0301122053   -0.1642023776    2.7075636925
C       -3.6928792103    0.4336197520    2.2785337927
C       -6.3060765222    1.1132687404    3.1958305811
C       -2.3293197772    0.1864521292    1.8271843570
C       -0.2975230701   -1.0806368893    1.0395940997
C       -1.6857161834   -0.9904576275    1.5528313242
C        1.4136259776    2.0354499837    0.5651807316
N       -2.7204058554   -3.3251766316    2.0102010484
N        0.5684321161   -0.1497929497    0.6924504283
O        0.2520355927    1.2256114937    0.7470319886
Cl      -7.9050729576    1.5279496565    3.7619984771
H       -3.2268163250    2.4849489151    2.7944492987
H       -4.6440550272   -1.5015434814    1.8547575063
H       -5.4786295393    3.0523363599    3.5851859475
H       -6.8237640505   -0.9017853570    2.6762842729
H       -1.7504789168    1.0933484267    1.7792781594
H        0.0892601999   -2.0874532270    0.9246248314
H        1.1607213138    3.0866404339    0.7295395931
H        1.7966598130    1.9175509545   -0.4528927643
H        2.1943853108    1.7459965425    1.2757324304
24   

C       -2.3531075517   -2.2647335528    1.4858520384
C       -4.0373094434    1.7617564724    2.5824471215
C       -4.7032566264   -0.5445049875    2.4588031237
C       -5.3148299953    2.1102323004    3.0331908215
C       -5.9805343127   -0.1874771913    2.9107331665
C       -3.6934809692    0.4284330712    2.2824798444
C       -6.2995221809    1.1386859988    3.2019287310
C       -2.3348400776    0.1771583629    1.8211768063
C       -0.3013077507   -1.0635512480    1.0022403637
C       -1.7116454066   -0.9874404719    1.4588991893
C        1.5224261972    2.0303928372    0.8201371705
N       -2.8188354615   -3.3327162041    1.4860262781
N        0.6189151017   -0.1357265601    0.8273663443
O        0.3667877350    1.2318322262    1.0732191899
Cl      -7.8947674535    1.5722319672    3.7645485671
H       -3.3050315979    2.5529699305    2.4669006128
H       -4.5754186213   -1.5965051118    2.2663380937
H       -5.5477909084    3.1451325638    3.2553622119
H       -6.7376020223   -0.9528107096    3.0376425531
H       -1.7596485247    1.0851745350    1.7755302663
H        0.0535902220   -2.0602180112    0.7627187830
H        1.2987472251    3.0801712045    1.0297296924
H        1.8242084676    1.9352480610   -0.2274401675
H        2.3499512245    1.7104340211    1.4608118243
24   

C       -2.4824310065   -2.1770129343    1.1737194710
C       -4.1145117096    1.7727755260    2.3875973693
C       -4.6148144859   -0.5605952122    2.6728124839
C       -5.3951950470    2.1051082919    2.8426745681
C       -5.8960278270   -0.2215621038    3.1261279308
C       -3.6926259620    0.4337010917    2.2776639051
C       -6.3001577877    1.1109808721    3.2127182485
C       -2.3392001839    0.1908555698    1.7946307267
C       -0.3269551747   -1.0677013159    0.9458618319
C       -1.7482016734   -0.9634153387    1.3553504108
C        1.5909219108    1.9578496283    1.1246243817
N       -3.0384625807   -3.1878705025    1.0122470203
N        0.6528315083   -0.1863925413    0.9572281211
O        0.4713225239    1.1292454948    1.4378675158
Cl      -7.8985446676    1.5254541323    3.7807570993
H       -3.4449632538    2.5788366479    2.1091862088
H       -4.3805187316   -1.6144635380    2.6784924252
H       -5.6934769747    3.1448636961    2.9102233765
H       -6.5851749624   -1.0040212589    3.4223100944
H       -1.7675647191    1.1008328128    1.7234542860
H       -0.0243052179   -2.0375571063    0.5660198006
H        1.3724287223    2.9936413695    1.3991602160
H        1.8072143431    1.9160575053    0.0523682583
H        2.4721223048    1.6219575134    1.6793709467
24   

C       -2.5851626588   -2.0890491355    1.0446106144
C       -4.2092350621    1.7544032571    2.2265771980
C       -4.5040965444   -0.5452241232    2.8624679702
C       -5.4922894235    2.0505572845    2.7008493771
C       -5.7877704820   -0.2447407185    3.3343408820
C       -3.6928330396    0.4471586397    2.2741271506
C       -6.2962749557    1.0529112940    3.2539998702
C       -2.3362554356    0.2226941760    1.7834328810
C       -0.3847236786   -1.0485562107    0.8207115579
C       -1.7901876614   -0.9211735942    1.2695007613
C        1.6517200628    1.8665407937    1.2812191698
N       -3.2022731285   -3.0590762380    0.8578718430
N        0.6266513088   -0.2076477281    0.8931167082
O        0.4974067245    1.0575509574    1.5080587051
Cl      -7.8975724508    1.4229354632    3.8441148130
H       -3.6148189625    2.5570988894    1.8048450389
H       -4.1562849064   -1.5617430602    2.9930654504
H       -5.8716244689    3.0640049745    2.6407252528
H       -6.3952588371   -1.0264624784    3.7755077840
H       -1.7675646236    1.1348668213    1.6972044956
H       -0.1291680052   -1.9936906565    0.3540921070
H        1.4715133416    2.8798863319    1.6507955527
H        1.8770972080    1.9170478816    0.2111761565
H        2.5134727004    1.4448292595    1.8071737280
24   

C       -2.6698371215   -1.9958182087    0.9641837544
C       -4.2958683093    1.7215024443    2.0808177443
C       -4.3911863389   -0.4900534415    3.0226822231
C       -5.5808258034    1.9845243182    2.5701850224
C       -5.6765060639   -0.2242302173    3.5098475117
C       -3.6882884040    0.4696779680    2.2700833705
C       -6.2858989442    1.0123749820    3.2836451242
C       -2.3200100562    0.2621683884    1.7899872250
C       -0.4412420251   -1.0100357264    0.6954825478
C       -1.8252607721   -0.8645447917    1.1978699391
C        1.7263652787    1.7660710362    1.3752778437
N       -3.3322240023   -2.9347082110    0.7742148775
N        0.5987055281   -0.2085590405    0.7974802753
O        0.5243345746    1.0080237433    1.5120117004
Cl      -7.8896790684    1.3411429778    3.8911902129
H       -3.7727170429    2.4994559440    1.5362197244
H       -3.9453213303   -1.4520757074    3.2474205267
H       -6.0387777240    2.9515327534    2.3977904255
H       -6.2063246471   -0.9827810235    4.0742408405
H       -1.7477580147    1.1739635452    1.7124383427
H       -0.2332493534   -1.9300186831    0.1601678417
H        1.5916783986    2.7560919552    1.8198381322
H        1.9821570714    1.8867331481    0.3177826292
H        2.5498675113    1.2570879347    1.8850986605
24   

C       -2.7297965192   -1.8867786302    0.8732240946
C       -4.3885219490    1.6604330522    1.9415821792
C       -4.2807531528   -0.4013307579    3.1789364435
C       -5.6734144365    1.8945717828    2.4461089919
C       -5.5657326292   -0.1653191797    3.6818468769
C       -3.6862883266    0.4921697844    2.2723346694
C       -6.2764928522    0.9813842587    3.3158189251
C       -2.3051512318    0.3077274377    1.7967008725
C       -0.4901257531   -0.9235330427    0.5594628421
C       -1.8518796346   -0.7833601709    1.1180459170
C        1.7860828239    1.6999701019    1.4585509461
N       -3.4216436654   -2.8015748076    0.6715653695
N        0.5703892370   -0.1542354320    0.6901600353
O        0.5421640204    1.0009185848    1.5035010198
Cl      -7.8801808677    1.2738450989    3.9418946168
H       -3.9396285587    2.3898009418    1.2767584787
H       -3.7454537509   -1.2906341402    3.4930589589
H       -6.2106481710    2.7926735517    2.1644996312
H       -6.0168814803   -0.8756366320    4.3648281530
H       -1.7306398656    1.2207951720    1.7483256660
H       -0.3215833036   -1.8069776675   -0.0465099607
H        1.6935890294    2.6532313472    1.9864254799
H        2.0738329999    1.8980118164    0.4211691558
H        2.5683801624    1.1035648355    1.9376426223
24   

C       -2.8007512309   -1.7605437744    0.7368130628
C       -4.4771088793    1.5474819363    1.8092133840
C       -4.1805235947   -0.2847690089    3.3438705214
C       -5.7661803333    1.7590979604    2.3131971845
C       -5.4695549564   -0.0712248737    3.8466375699
C       -3.6799458227    0.5031366708    2.2969097657
C       -6.2762080056    0.9490836031    3.3327798221
C       -2.2906528192    0.3347038069    1.8132430725
C       -0.5331918390   -0.8457497867    0.4518992190
C       -1.8815513458   -0.7065345451    1.0410199660
C        1.8450861839    1.6040870421    1.5528914013
N       -3.5273034831   -2.6331755284    0.4784803192
N        0.5530364413   -0.1231360336    0.6285428826
O        0.5696551002    0.9631398325    1.5321082525
Cl      -7.8850413075    1.2130152806    3.9583663631
H       -4.0986137121    2.1929980958    1.0246641576
H       -3.5673509903   -1.0755306016    3.7618136128
H       -6.3795898606    2.5581666317    1.9135718226
H       -5.8502372612   -0.7002742230    4.6427890555
H       -1.6935352493    1.2340964176    1.8462921580
H       -0.4017081232   -1.6836206449   -0.2239084684
H        1.7920107433    2.5130761671    2.1585644256
H        2.1512740833    1.8744255228    0.5373695946
H        2.5944092487    0.9335922269    1.9844231636
24   

C       -2.8983910861   -1.5265933035    0.4991227334
C       -4.5765784589    1.3523062316    1.6566587049
C       -4.0787118184   -0.1187921083    3.5019260073
C       -5.8830010224    1.5075973170    2.1355822606
C       -5.3860503581    0.0386792225    3.9777311732
C       -3.6613991638    0.5378197939    2.3353332071
C       -6.2994047623    0.8536988265    3.3002346432
C       -2.2727705683    0.3747913830    1.8349642537
C       -0.5455176016   -0.8084476737    0.4324796469
C       -1.9098598969   -0.6016636496    0.9640328724
C        1.9172204264    1.5270358893    1.5970665699
N       -3.6811727907   -2.2930061997    0.1041834458
N        0.5710460193   -0.1460656482    0.6519708560
O        0.6060067461    0.9684489156    1.5184886032
Cl      -7.9290791616    1.0498663461    3.8961267697
H       -4.2729829759    1.8633037362    0.7498517503
H       -3.3858110309   -0.7580645963    4.0374661404
H       -6.5840339054    2.1375932294    1.6006914187
H       -5.6999603644   -0.4761515418    4.8781975003
H       -1.5686881379    1.0980590988    2.2169086674
H       -0.4341522357   -1.6410666632   -0.2533975282
H        1.9124638078    2.3869558549    2.2726898496
H        2.2466322199    1.8568486917    0.6069364947
H        2.6223973822    0.7817971412    1.9778271984
24   

C       -2.9617243468   -1.2820603263    0.2518495675
C       -4.6671482518    1.1338407789    1.5434654018
C       -3.9880707729    0.0947509093    3.6117530476
C       -5.9770474784    1.2348914715    2.0267896651
C       -5.2996704532    0.1975070071    4.0909934848
C       -3.6519687322    0.5852748686    2.3401144060
C       -6.3043068100    0.7732322553    3.3060168744
C       -2.2745298067    0.4163310155    1.8226651801
C       -0.5624649161   -0.7619187944    0.4047598442
C       -1.9398718424   -0.4912049836    0.8676235329
C        1.9235941374    1.4811325663    1.6919017318
N       -3.7735515247   -1.9347649759   -0.2687810423
N        0.5676241204   -0.1470473206    0.6841007698
O        0.5932275796    0.9934820859    1.5177982404
Cl      -7.9385639146    0.9027599615    3.9075450505
H       -4.4371123714    1.4832532467    0.5430066840
H       -3.2279772532   -0.3690920574    4.2302276011
H       -6.7505366293    1.6688904841    1.4040277995
H       -5.5467608590   -0.1765796021    5.0776220763
H       -1.5030884674    0.8321790181    2.4539482446
H       -0.4555658372   -1.5887546975   -0.2887702118
H        1.9295539594    2.2803138778    2.4383408521
H        2.3044781859    1.8768099325    0.7455178100
H        2.5821493816    0.6757922561    2.0322980533
24   

C       -2.9913810594   -1.1586965945    0.0725220219
C       -4.7464155187    0.9702624373    1.4980089815
C       -3.9207629511    0.2964010866    3.6637401211
C       -6.0380599700    1.0758119767    2.0270534299
C       -5.2149283967    0.4044705985    4.1870411340
C       -3.6664225934    0.5959790239    2.3136018339
C       -6.2838758618    0.7979043202    3.3754526221
C       -2.3050202075    0.4131539902    1.7825601359
C       -0.5940807599   -0.6712503718    0.2888033205
C       -1.9741429113   -0.4198921491    0.7565050256
C        1.9152457840    1.3973865392    1.8037002349
N       -3.8007017475   -1.7625852252   -0.5076183195
N        0.5415178917   -0.0974014925    0.6275257597
O        0.5760629317    0.9736766745    1.5484901467
Cl      -7.8967576855    0.9304682066    4.0315194210
H       -4.5853405714    1.1829660456    0.4468703155
H       -3.1115262987   -0.0254902493    4.3094631834
H       -6.8607843283    1.3703124312    1.3859905319
H       -5.3981582520    0.1760272577    5.2304490957
H       -1.5242475934    0.7475850368    2.4493865291
H       -0.4890830052   -1.4429012635   -0.4659517747
H        1.9222988919    2.1334218164    2.6124664811
H        2.3414189664    1.8535309848    0.9050734857
H        2.5345280085    0.5441830661    2.0982087808
24   

C       -2.9770078211   -1.1003978687   -0.0854602515
C       -4.8122869462    0.7848943219    1.4792181962
C       -3.8572551228    0.4598170298    3.6730562081
C       -6.0806848552    0.9158664645    2.0567958908
C       -5.1291051698    0.5930516735    4.2427308395
C       -3.6781661000    0.5576892843    2.2793291669
C       -6.2513773519    0.8217244410    3.4411492341
C       -2.3295670035    0.3707284678    1.7380345428
C       -0.5976770853   -0.5712994183    0.1708042296
C       -1.9841849656   -0.3786066222    0.6501094653
C        1.8973590036    1.3232055300    1.9184107213
N       -3.7658206308   -1.6876130215   -0.7094433437
N        0.5316997550   -0.0182493893    0.5619075291
O        0.5583891552    0.9665861834    1.5746058823
Cl      -7.8364484632    0.9845954705    4.1555732582
H       -4.7214408345    0.8750045998    0.4027973647
H       -3.0072027458    0.2716770708    4.3191925923
H       -6.9439769445    1.0911377439    1.4253879368
H       -5.2526364020    0.5142252418    5.3165216528
H       -1.5479825097    0.6771292431    2.4163655541
H       -0.4794238833   -1.2764653147   -0.6446470059
H        1.8920667011    1.9806642928    2.7922743930
H        2.3714347615    1.8470577217    1.0829637244
H        2.4810281851    0.4278292846    2.1548722963
24   

C       -2.9449408642   -1.0331574268   -0.2517163780
C       -4.8735736985    0.5957917953    1.4801080292
C       -3.7998424452    0.6202071600    3.6427355037
C       -6.1162141473    0.7589129062    2.1041535172
C       -5.0468107390    0.7847386025    4.2568404873
C       -3.6901476515    0.5129796329    2.2400943754
C       -6.2157134002    0.8519714144    3.4947685782
C       -2.3529707718    0.3251781605    1.6844087405
C       -0.5895819733   -0.4549125592    0.0608411710
C       -1.9843552283   -0.3311422658    0.5425998709
C        1.8802088802    1.2422460310    2.0311872314
N       -3.7035759014   -1.6059787628   -0.9247586778
N        0.5306887785    0.0743565267    0.5082045223
O        0.5458486681    0.9566362307    1.6113790550
Cl      -7.7698862383    1.0537760385    4.2649684841
H       -4.8581514718    0.5605587554    0.3981766626
H       -2.9147756383    0.5652120241    4.2665487302
H       -7.0158805973    0.8176454457    1.5025471207
H       -5.1136483334    0.8583204794    5.3360367989
H       -1.5724625649    0.6215931068    2.3669355220
H       -0.4532317960   -1.0826774419   -0.8130138177
H        1.8602135235    1.8130692685    2.9637647566
H        2.3954344081    1.8304422399    1.2659094282
H        2.4338193093    0.3129304631    2.1991586147
24   

C       -2.9245095010   -0.9226917352   -0.4107209813
C       -4.9311170158    0.3851070324    1.5176714883
C       -3.7690450264    0.7738806212    3.5951830499
C       -6.1519239718    0.5749400123    2.1768511292
C       -4.9945813946    0.9637745549    4.2435004856
C       -3.7078099340    0.4632814722    2.2183410361
C       -6.1969251160    0.8611085250    3.5425149973
C       -2.3785682327    0.2853814995    1.6476461740
C       -0.5906078580   -0.3393196251   -0.0166848609
C       -1.9932225468   -0.2726569041    0.4582696633
C        1.8705508508    1.1283932271    2.1417827532
N       -3.6482215218   -1.4592575059   -1.1491919704
N        0.5255952865    0.1450467904    0.4893690912
O        0.5383812177    0.9071997535    1.6785444779
Cl      -7.7249406480    1.0949598722    4.3548311205
H       -4.9871873212    0.2043980103    0.4541075356
H       -2.8598849202    0.8604866288    4.1795255092
H       -7.0789633316    0.5049944156    1.6195278115
H       -5.0175192751    1.1920366307    5.3027219514
H       -1.5997074027    0.5790212446    2.3313462993
H       -0.4410412493   -0.8782099338   -0.9460207395
H        1.8453675118    1.6131653618    3.1217507722
H        2.4085625301    1.7732946258    1.4405435693
H        2.4045666966    0.1772238729    2.2331886760
24   

C       -2.9225421241   -0.6403589528   -0.5814979256
C       -4.9507884405    0.1259393686    1.6127475693
C       -3.7594659596    0.9528811709    3.5348599623
C       -6.1598532442    0.3241799424    2.2912327422
C       -4.9729374713    1.1472143100    4.2037543076
C       -3.7113908060    0.4357510970    2.2202635520
C       -6.1845005538    0.8346828827    3.5889718946
C       -2.3866524486    0.2816717306    1.6344289465
C       -0.5832636752   -0.2680833729   -0.0392201209
C       -1.9963171791   -0.1813317332    0.4059734288
C        1.9221693433    0.8717534187    2.2748418899
N       -3.6274672683   -1.0267287547   -1.4248259228
N        0.5473855162    0.0612083216    0.5535443814
O        0.5830995631    0.6177278563    1.8510148267
Cl      -7.6984786185    1.0773796115    4.4246157636
H       -5.0484381074   -0.2715585486    0.6155931908
H       -2.8449212997    1.2118558425    4.0565143855
H       -7.0952968736    0.0778149649    1.8020875320
H       -4.9784041297    1.5451013535    5.2118465689
H       -1.6128979742    0.5903872857    2.3151607742
H       -0.4367195010   -0.6737063624   -1.0345017997
H        1.9165992286    1.2860407436    3.2869434951
H        2.4007719192    1.5893417210    1.6014029812
H        2.5003816516   -0.0573941744    2.2763659293
