42

C     -0.00532   -2.02522   -0.89991
C      0.06596   -3.22694    0.05294
C     -0.92679   -1.02116   -0.18845
C      0.12592   -2.59176    1.44059
C     -0.21378   -3.47129    2.63724
C     -0.20326   -2.71367    3.97529
C     -2.93232   -0.96911    8.99313
C     -1.53517   -1.43988    8.56868
C     -2.88702   -0.17488   10.30322
C     -0.20125   -3.65679    5.17684
C     -1.60850   -2.24045    7.26609
C     -4.24998    0.34085   10.71442
N     -0.86800   -1.41991    1.29716
O      0.83216   -1.54144    6.42678
O      0.56004   -3.73168    7.73007
F     -4.18945    1.03189   11.87438
F     -5.14155   -0.66857   10.88947
F     -4.77622    1.17355    9.77565
S      0.05916   -2.75521    6.75523
H      0.98792   -1.59197   -1.04311
H     -0.39937   -2.28718   -1.88309
H     -0.82364   -3.86104   -0.03661
H      0.94137   -3.85408   -0.12572
H     -0.61049    0.01746   -0.27817
H     -1.96788   -1.10260   -0.50071
H      1.09817   -2.11184    1.58837
H     -1.17675   -3.97188    2.47064
H      0.54139   -4.26458    2.65592
H     -1.07044   -2.04266    4.04339
H      0.68784   -2.08132    4.04524
H     -3.59485   -1.83257    9.11637
H     -3.36591   -0.34229    8.20584
H     -0.87484   -0.57835    8.42752
H     -1.09300   -2.06600    9.34973
H     -2.51220   -0.79246   11.12456
H     -2.22784    0.69377   10.21446
H     -1.11826   -4.24463    5.27597
H      0.64520   -4.34959    5.14314
H     -2.19491   -3.15597    7.38693
H     -2.02301   -1.64032    6.44948
H     -0.60241   -0.63322    1.89698
H     -1.79351   -1.72341    1.61519
