27

C      3.94757    0.68620   -1.00844
C      3.93126    1.89146   -1.70727
C      1.63282    2.08656   -1.66326
C      0.94234   -0.99273    0.16806
C      1.50672    0.88080   -0.95092
C      0.39350    0.11345   -0.43650
C      2.70034    0.17918   -0.62630
C     -1.05910    0.48251   -0.50672
C     -2.88141    2.06338    0.23683
C     -1.42291    1.65392    0.42414
N      2.81417    2.58362   -2.03394
N      2.33275   -0.95794    0.05793
N     -1.23686    1.24200    1.82424
O     -3.03224    2.57913   -1.09082
H      4.88410    0.18299   -0.78308
H      4.87065    2.33628   -2.03072
H      0.75183    2.66317   -1.94310
H      0.45084   -1.81586    0.67048
H     -1.33088    0.76329   -1.52869
H     -1.67471   -0.37961   -0.22533
H     -3.14330    2.83036    0.98183
H     -3.52739    1.19034    0.40608
H     -0.80041    2.51975    0.14669
H      2.96293   -1.67134    0.39505
H     -1.29700    2.05540    2.43527
H     -0.29312    0.87202    1.93287
H     -3.96344    2.80969   -1.22470
