15   
Generated by ForceBalance from scan.xyz: Frame 1 of 24
C        2.2093605532   -1.0522910868   -0.7521651180
C        4.3429524216    0.2883622371   -1.3560792727
C        4.7484958358   -0.8311963694   -0.4245310417
C        3.3711188294   -0.2111519843   -0.3241395078
C        0.1374440947   -1.9819470073   -0.1347023334
O        2.1677876407   -1.6232591948   -1.8281981119
O        1.2702478269   -1.1514655719    0.2028009891
F        3.1390189872    0.5948110456    0.7690346828
H        4.7570674396    1.2730714043   -1.1651418286
H        4.1220693644    0.0478967152   -2.3902583347
H        4.8147112935   -1.8393743831   -0.8195807808
H        5.4210460361   -0.5897672479    0.3924978042
H        0.4623624082   -3.0081417939   -0.3208214039
H       -0.5207997100   -1.9356345793    0.7321509665
H       -0.3652465645   -1.5954829216   -1.0240025333
15   
Generated by ForceBalance from scan.xyz: Frame 2 of 24
C        2.2645170053   -1.1614227991   -0.6792571112
C        4.2827103034    0.3130505614   -1.3383013756
C        4.8124357212   -0.8118330527   -0.4783019603
C        3.4101916080   -0.2920211151   -0.2684944719
C        0.1088920745   -1.9430694897   -0.1544845625
O        2.2870340158   -1.8419156127   -1.6906114252
O        1.2414335995   -1.1144199804    0.1889283759
F        3.1953864556    0.4662695866    0.8617226855
H        4.6398180674    1.3163005825   -1.1293581285
H        4.0173227620    0.0969699707   -2.3674638926
H        4.9118773349   -1.7981406890   -0.9184787391
H        5.5192200855   -0.5574347502    0.3050097539
H        0.4068324100   -2.9930582332   -0.1977427502
H       -0.6177609599   -1.7794926450    0.6405166187
H       -0.3005937084   -1.6438318767   -1.1218325489
15   
Generated by ForceBalance from scan.xyz: Frame 3 of 24
C        2.3020744538   -1.2510013737   -0.6064625283
C        4.2045295664    0.3425113108   -1.3085976651
C        4.8477700919   -0.7825211608   -0.5259194658
C        3.4380081780   -0.3602319457   -0.2134240057
C        0.0741002320   -1.8833258932   -0.1945439176
O        2.3729668466   -2.0330976847   -1.5389519852
O        1.2109056694   -1.0620774270    0.1525281264
F        3.2453766108    0.3499159152    0.9524419275
H        4.5109047557    1.3574830734   -1.0768048039
H        3.8955299766    0.1518440645   -2.3307355374
H        4.9746617464   -1.7435727717   -1.0121994890
H        5.5868544149   -0.5149387308    0.2222098045
H        0.3270710055   -2.9414606763   -0.0977137819
H       -0.7066072435   -1.6062133347    0.5129300966
H       -0.2414634333   -1.6799051055   -1.2202749758
15   
Generated by ForceBalance from scan.xyz: Frame 4 of 24
C        2.3494439341   -1.3422480994   -0.5376835309
C        4.1319317261    0.3595741258   -1.2861768960
C        4.8822854607   -0.7614246307   -0.5907175704
C        3.4811822583   -0.4306016650   -0.1748461928
C        0.0662100812   -1.8308707204   -0.2425863999
O        2.4523648494   -2.2260903200   -1.3703015078
O        1.2109578622   -1.0175657830    0.0963816688
F        3.3224976285    0.2311749413    1.0257473251
H        4.3972650057    1.3802113685   -1.0297259953
H        3.7735757711    0.1954384702   -2.2969917775
H        5.0267930682   -1.6949970166   -1.1233428994
H        5.6563245174   -0.4814212576    0.1162316378
H        0.2603608097   -2.8785672755   -0.0026285227
H       -0.7518528242   -1.4412812042    0.3622613395
H       -0.1607420382   -1.7402673946   -1.3072730187
15   
Generated by ForceBalance from scan.xyz: Frame 5 of 24
C        2.3834734548   -1.4199491056   -0.4658721323
C        4.0576735295    0.3797003622   -1.2452929456
C        4.8944043337   -0.7433925540   -0.6478973149
C        3.5143821618   -0.4883338438   -0.1378481108
C        0.0645350349   -1.7910885270   -0.2874840785
O        2.5083512204   -2.4085522271   -1.1657215526
O        1.2130975153   -0.9702723772    0.0180885028
F        3.3974992130    0.1155399241    1.0998036089
H        4.2998958662    1.3976897196   -0.9570226583
H        3.6490544592    0.2519065509   -2.2425687436
H        5.0429531389   -1.6462719383   -1.2301956845
H        5.7027553118   -0.4619861580    0.0188716372
H        0.2005377097   -2.7984800302    0.1121295371
H       -0.7787094777   -1.2960660235    0.1928843021
H       -0.0830420691   -1.8482695892   -1.3683874693
15   
Generated by ForceBalance from scan.xyz: Frame 6 of 24
C        2.3949560030   -1.4807838333   -0.4324410366
C        3.9860422681    0.4102454165   -1.2135631858
C        4.8817331533   -0.7275130476   -0.7262245439
C        3.5281395732   -0.5329521752   -0.1367045011
C        0.0546572636   -1.7597251535   -0.3731491827
O        2.5325498919   -2.5683349626   -0.9598192582
O        1.2083893164   -0.9268559497   -0.1255216946
F        3.4584538945   -0.0053464181    1.1418505740
H        4.2256212810    1.4155832525   -0.8815937952
H        3.5299624610    0.3345743967   -2.1958069437
H        5.0219952109   -1.5928916794   -1.3651743754
H        5.7210121564   -0.4622689820   -0.0918117385
H        0.1278043154   -2.6886488041    0.1968394133
H       -0.8014314649   -1.1717699717   -0.0439965643
H       -0.0213616901   -1.9940591703   -1.4374657057
15   
Generated by ForceBalance from scan.xyz: Frame 7 of 24
C        2.4048027805   -1.5242686570   -0.3559584181
C        3.9364428519    0.4428778253   -1.1372406591
C        4.8636162760   -0.7224797329   -0.7790226129
C        3.5478094368   -0.5674587966   -0.1032865184
C        0.0557605235   -1.7312460909   -0.4177669955
O        2.5359513041   -2.6914146059   -0.6684165341
O        1.2204451379   -0.8950497238   -0.2409200797
F        3.5517114187   -0.1317221356    1.2143514901
H        4.2027318833    1.4260116061   -0.7617004377
H        3.4212089038    0.4316720313   -2.0929122862
H        4.9709359328   -1.5448885203   -1.4787804856
H        5.7409408617   -0.4933501031   -0.1830166380
H        0.0543168757   -2.5387944715    0.3178077198
H       -0.7987553216   -1.0720358502   -0.2689021710
H        0.0462238385   -2.1585148775   -1.4231402599
15   
Generated by ForceBalance from scan.xyz: Frame 8 of 24
C        2.4227005944   -1.5489620455   -0.2812098490
C        3.9006243636    0.4794327374   -1.0778391967
C        4.8395373043   -0.7125455672   -0.8613100545
C        3.5765403347   -0.5868119372   -0.0844914161
C        0.0787578415   -1.7247910205   -0.4850599421
O        2.5376683829   -2.7555124665   -0.3573724002
O        1.2515280689   -0.8886700982   -0.3672168916
F        3.6851257671   -0.2441665330    1.2572953097
H        4.2101594064    1.4370777714   -0.6709866409
H        3.3134433360    0.5291250560   -1.9897228453
H        4.8931700177   -1.4887837725   -1.6181068682
H        5.7598902402   -0.5267283657   -0.3170343276
H       -0.0014109658   -2.3862080510    0.3805021236
H       -0.7648069872   -1.0365308199   -0.5253503941
H        0.1331547976   -2.3264599142   -1.3952548863
15   
Generated by ForceBalance from scan.xyz: Frame 9 of 24
C        2.4214552239   -1.5644832302   -0.1707255656
C        3.8562761454    0.4962723296   -1.0047996366
C        4.7760778058   -0.7249051258   -0.9383552676
C        3.5911473609   -0.6094527011   -0.0386885803
C        0.1013945625   -1.7473789778   -0.5590443531
O        2.5045722086   -2.7649534446   -0.0119028100
O        1.2777481806   -0.9129269898   -0.4632706770
F        3.8404447306   -0.3531700786    1.3017140249
H        4.2321688409    1.4240879895   -0.5850283991
H        3.1851712281    0.6064036520   -1.8507119262
H        4.7428955874   -1.4585705122   -1.7379011902
H        5.7464628766   -0.5915366888   -0.4706035462
H       -0.0803756468   -2.2514108467    0.3926990078
H       -0.7162132189   -1.0689943472   -0.8004828728
H        0.2305609795   -2.4955546780   -1.3444956146
15   
Generated by ForceBalance from scan.xyz: Frame 10 of 24
C        2.4195799371   -1.5279217880   -0.0530840785
C        3.8273719896    0.5377937478   -0.9396703835
C        4.6888591120   -0.7169235808   -1.0236934092
C        3.6089235964   -0.5949573154    0.0100390910
C        0.1478383693   -1.7558069100   -0.6483947624
O        2.4501753848   -2.6808025856    0.3237025346
O        1.3227566107   -0.9193701113   -0.5522084976
F        4.0195980326   -0.4196100078    1.3189278564
H        4.2882805739    1.4285335366   -0.5243516889
H        3.0735175322    0.7136592149   -1.6997106554
H        4.5389821253   -1.4097768314   -1.8461817001
H        5.7070943250   -0.6502414367   -0.6532244128
H       -0.1482614198   -2.1023815911    0.3440348961
H       -0.6241960433   -1.1221556379   -1.0837564645
H        0.3476091427   -2.6193581349   -1.2869376991
15   
Generated by ForceBalance from scan.xyz: Frame 11 of 24
C        2.4394200211   -1.4946579070    0.0513549504
C        3.8247650573    0.5727458622   -0.8743764030
C        4.6053270038   -0.7070166783   -1.1119640064
C        3.6473005391   -0.5937378852    0.0480083080
C        0.2305050879   -1.7940860184   -0.7233937328
O        2.4043149957   -2.5706683104    0.6098373810
O        1.4038439635   -0.9554150503   -0.6302174002
F        4.2138958987   -0.5072775496    1.3016098352
H        4.3702960344    1.4170094322   -0.4646019170
H        3.0038360817    0.8214699956   -1.5375364949
H        4.3303934956   -1.3465316602   -1.9452046289
H        5.6582570030   -0.7122019514   -0.8478555916
H       -0.1688503634   -1.9926852310    0.2734258141
H       -0.4836442508   -1.2279498309   -1.3206518092
H        0.4770451702   -2.7414832751   -1.2081591456
15   
Generated by ForceBalance from scan.xyz: Frame 12 of 24
C        2.4147392375   -1.4608211284    0.1353448813
C        3.8054315386    0.5905765765   -0.8101291028
C        4.5061471105   -0.7016592851   -1.1721450523
C        3.6519237045   -0.6123236768    0.0744442288
C        0.2673735956   -1.8206374479   -0.7776557223
O        2.2927217531   -2.4350644234    0.8468493404
O        1.4574749888   -1.0046074712   -0.7066264420
F        4.3278767086   -0.6048313560    1.2721489747
H        4.4176885867    1.3888632113   -0.4025438379
H        2.9450508565    0.9032819505   -1.3903647881
H        4.1317637548   -1.2863763323   -2.0064179933
H        5.5752080493   -0.7648685040   -0.9950333734
H       -0.2197445540   -1.8611560069    0.1988589750
H       -0.3751341680   -1.3326022504   -1.5100449666
H        0.5189072831   -2.8344413116   -1.0974871260
15   
Generated by ForceBalance from scan.xyz: Frame 13 of 24
C        2.4079632954   -1.4375126120    0.1797349680
C        3.8094002391    0.6047536570   -0.7468502283
C        4.4557902833   -0.6778179350   -1.2206161997
C        3.6763632627   -0.6467863977    0.0773560675
C        0.3096147369   -1.8527042776   -0.8210999686
O        2.1950160728   -2.2898654937    1.0150469640
O        1.5313764778   -1.0830179875   -0.7919124650
F        4.4195875172   -0.7138589369    1.2308725760
H        4.4609444619    1.3635531464   -0.3251201416
H        2.9249732991    0.9667182340   -1.2581634986
H        4.0176493383   -1.2053948255   -2.0612685123
H        5.5311236364   -0.7733310285   -1.1080780427
H       -0.2407253690   -1.7224549581    0.1131544471
H       -0.2601066619   -1.4597687330   -1.6627792286
H        0.5307105549   -2.9128144997   -0.9645319657
15   
Generated by ForceBalance from scan.xyz: Frame 14 of 24
C        1.8841524201   -0.3939950787   -0.5721806747
C        4.3946782880   -0.6112443939   -1.3284444909
C        4.3847761216   -0.5315744470    0.1829313612
C        3.2872709136    0.1262999711   -0.6198853092
C        0.5579164600   -2.3491117538   -0.5441601864
O        0.8921037055    0.2991414562   -0.5047544601
O        1.8700378354   -1.7499086661   -0.6099075975
F        3.3227549197    1.4978674079   -0.6882132256
H        5.1003587362    0.0215873894   -1.8571527935
H        4.1473707932   -1.5534705700   -1.8041041698
H        4.1303089255   -1.4193603539    0.7512324859
H        5.0811977556    0.1548745766    0.6538605841
H       -0.0513519658   -2.0206768581   -1.3890021150
H        0.7284897549   -3.4245557314   -0.5863231259
H        0.0605827283   -2.0727167804    0.3882680554
15   
Generated by ForceBalance from scan.xyz: Frame 15 of 24
C        1.8842314632   -0.3981951566   -0.5891924876
C        4.3786477863   -0.5631435857   -1.3557999942
C        4.4049723100   -0.5897267129    0.1587608895
C        3.2891405383    0.1188102432   -0.5628125855
C        0.5501433632   -2.3461079176   -0.5022283438
O        0.8965595293    0.2919894438   -0.7199701269
O        1.8633923936   -1.7476065239   -0.4529968431
F        3.3260389234    1.4926851087   -0.5447846046
H        5.0665472787    0.1083030688   -1.8596260080
H        4.1208897866   -1.4718597977   -1.8886635746
H        4.1658376576   -1.5158314536    0.6689562311
H        5.1140268436    0.0629544890    0.6579030359
H        0.0712857141   -2.1331005276   -1.4606206709
H        0.7152547153   -3.4165849552   -0.3828592737
H       -0.0731470625   -1.9583264140    0.3064367591
15   
Generated by ForceBalance from scan.xyz: Frame 16 of 24
C        1.8916276484   -0.4057334787   -0.6184589391
C        4.3767070931   -0.4821442615   -1.3847040283
C        4.4268387715   -0.6182170735    0.1271010128
C        3.2926667622    0.1192755062   -0.5218397757
C        0.5418487412   -2.3365150657   -0.4512044201
O        0.9310720299    0.2579468206   -0.9437811522
O        1.8410760099   -1.7230393758   -0.3032383763
F        3.3104506390    1.4912678351   -0.4136407167
H        5.0446628040    0.2357298429   -1.8497349596
H        4.1285166665   -1.3556028705   -1.9786115359
H        4.2128800429   -1.5830378322    0.5720662296
H        5.1369847168    0.0071946958    0.6584886391
H        0.1913074764   -2.2421441425   -1.4815172515
H        0.6841093098   -3.3838431919   -0.1861396343
H       -0.1777727639   -1.8619602448    0.2193106554
15   
Generated by ForceBalance from scan.xyz: Frame 17 of 24
C        1.9038630938   -0.4423171622   -0.6668661725
C        4.3930450308   -0.4022269403   -1.4071064191
C        4.4446792385   -0.6693380482    0.0905313895
C        3.2979844142    0.0925961429   -0.4964989867
C        0.5022382658   -2.3213346551   -0.3855216479
O        0.9959990473    0.1802505875   -1.1746144991
O        1.7922736771   -1.7021427900   -0.1849929554
F        3.2821820036    1.4535545598   -0.2735956376
H        5.0437802055    0.3686916020   -1.8071936798
H        4.1708177106   -1.2270238505   -2.0768575746
H        4.2531828671   -1.6744225619    0.4484972246
H        5.1428558827   -0.0806967514    0.6768999717
H        0.2606094964   -2.3623056181   -1.4500731308
H        0.5948995875   -3.3248652723    0.0288235621
H       -0.2714624563   -1.7560009592    0.1382409665
15   
Generated by ForceBalance from scan.xyz: Frame 18 of 24
C        1.9348413006   -0.5045814563   -0.7357977263
C        4.4363172523   -0.2990365045   -1.4240711563
C        4.4723035532   -0.7126122012    0.0448942495
C        3.3126600852    0.0589903342   -0.4935639647
C        0.4672847385   -2.3066281119   -0.3266107855
O        1.0927295020    0.0477223090   -1.4112703700
O        1.7512660475   -1.6828757411   -0.1000133788
F        3.2330866232    1.3925114846   -0.1374761946
H        5.0685078001    0.5281622079   -1.7308228128
H        4.2607071766   -1.0593858846   -2.1789395750
H        4.3124681592   -1.7545639473    0.2991399163
H        5.1421518338   -0.1642236789    0.6994299788
H        0.3165505487   -2.4906729990   -1.3927923294
H        0.4986516153   -3.2441780567    0.2276392875
H       -0.3331423908   -1.6631250087    0.0446380432
15   
Generated by ForceBalance from scan.xyz: Frame 19 of 24
C        1.9391825523   -0.5885992908   -0.7853329428
C        4.4381659692   -0.1886833882   -1.4277480422
C        4.4756093219   -0.7547172170   -0.0071762381
C        3.2930930142    0.0176144185   -0.4869379066
C        0.4025940674   -2.2931052053   -0.2377232262
O        1.1699830044   -0.1407303051   -1.6097364205
O        1.6833948109   -1.6630429280   -0.0096190885
F        3.1351363997    1.3002672126    0.0127395764
H        5.0440989130    0.6880966796   -1.6334499902
H        4.3041628056   -0.8683745357   -2.2637989809
H        4.3591697969   -1.8238714708    0.1357744355
H        5.1168038322   -0.2533501511    0.7108298854
H        0.3254664614   -2.6321989535   -1.2733163974
H        0.3683361062   -3.1373310131    0.4501399805
H       -0.4049034752   -1.5883075672   -0.0282047319
15   
Generated by ForceBalance from scan.xyz: Frame 20 of 24
C        1.9745269139   -0.6657823174   -0.8488893707
C        4.4567805957   -0.0767745602   -1.4300854487
C        4.5015320838   -0.7822788559   -0.0724145175
C        3.2957738937   -0.0121906611   -0.4954331237
C        0.3538853672   -2.2458587217   -0.1827984795
O        1.3039948148   -0.3625800416   -1.8141624752
O        1.6289576373   -1.6070495614    0.0525506205
F        3.0646942149    1.2000160482    0.1390147979
H        5.0367339386    0.8345561724   -1.5364068237
H        4.3545714075   -0.6704084251   -2.3333080890
H        4.4293763657   -1.8647288460   -0.0376551135
H        5.1150713914   -0.3315234320    0.7013548919
H        0.3549204268   -2.7473181712   -1.1533328523
H        0.2372632497   -2.9666295251    0.6258205902
H       -0.4478264610   -1.5044545767   -0.1608352263
15   
Generated by ForceBalance from scan.xyz: Frame 21 of 24
C        2.0309368804   -0.7514767063   -0.8791769591
C        4.4727144750    0.0179315278   -1.4165278864
C        4.5467618475   -0.8182069050   -0.1388216007
C        3.3128918965   -0.0469833027   -0.4835037702
C        0.3241943411   -2.2003566435   -0.1341194820
O        1.4867371698   -0.6374937533   -1.9589846837
O        1.5804597877   -1.5334274778    0.1211789982
F        3.0356429426    1.0760931137    0.2819414045
H        5.0278426220    0.9504615302   -1.4314435815
H        4.3771609365   -0.4828328161   -2.3747789761
H        4.5138570131   -1.9009801217   -0.2118610868
H        5.1455830175   -0.4261523448    0.6775098746
H        0.4190266590   -2.8693483507   -0.9925710176
H        0.1052897021   -2.7627532906    0.7729283830
H       -0.4593914339   -1.4660422850   -0.3337403767
15   
Generated by ForceBalance from scan.xyz: Frame 22 of 24
C        2.0778556183   -0.8186947004   -0.8777483823
C        4.4607941281    0.1121084123   -1.3977249787
C        4.5841538700   -0.8406904345   -0.2158549496
C        3.3187057049   -0.0666744393   -0.4554122504
C        0.2855925459   -2.1475062019   -0.1110881697
O        1.6886278581   -0.9214738757   -2.0247587919
O        1.5011409920   -1.4226488820    0.1781312019
F        3.0347396745    0.9576268885    0.4312296023
H        4.9944565170    1.0548480066   -1.3322318583
H        4.3472742631   -0.2948247001   -2.3971525374
H        4.5761050825   -1.9115263600   -0.3954437537
H        5.1850276435   -0.5148354196    0.6277353696
H        0.4878900178   -2.9599069346   -0.8129244327
H       -0.0524074252   -2.5392822298    0.8476687975
H       -0.4624068008   -1.4772815018   -0.5405976081
15   
Generated by ForceBalance from scan.xyz: Frame 23 of 24
C        2.1191536550   -0.8811613200   -0.8426538082
C        4.4310697427    0.1907522744   -1.3763004382
C        4.6269425507   -0.8492909525   -0.2887764663
C        3.3256239639   -0.0921503801   -0.4112336598
C        0.2380810133   -2.0898141612   -0.0954933923
O        1.8779547784   -1.1806426454   -1.9971868498
O        1.4083847255   -1.3037776247    0.2182720979
F        3.0599592767    0.8427125415    0.5693788730
H        4.9384265577    1.1418389744   -1.2509026028
H        4.2855483590   -0.1391392974   -2.3993395412
H        4.6367381409   -1.9003423840   -0.5601657692
H        5.2443065908   -0.5776399346    0.5619802483
H        0.5262377234   -3.0068683717   -0.6145768278
H       -0.2225328776   -2.3172105617    0.8652757069
H       -0.4459428978   -1.5176627817   -0.7262817374
15   
Generated by ForceBalance from scan.xyz: Frame 24 of 24
C        2.1638635816   -0.9608850260   -0.8021965438
C        4.3944836197    0.2443278314   -1.3664082098
C        4.6864159071   -0.8469742473   -0.3584684845
C        3.3451534422   -0.1440489222   -0.3700307850
C        0.1887922452   -2.0382672413   -0.1061107308
O        2.0377512461   -1.4127222782   -1.9262468470
O        1.3289399699   -1.2137909435    0.2202820550
F        3.0964190428    0.7217368796    0.6736560373
H        4.8607629378    1.2105297739   -1.2031135910
H        4.2143813181   -0.0341198195   -2.3989922953
H        4.7216078656   -1.8773205915   -0.6971774628
H        5.3283962293   -0.5998156206    0.4812852485
H        0.5185972224   -3.0211878220   -0.4503533712
H       -0.3793035641   -2.1228805534    0.8196331693
H       -0.4113833852   -1.5651741131   -0.8864770458
