14   

C       -1.7011907081   -0.2959298284    0.1205209037
C        0.4076507823   -0.7134711401    0.1434816868
C        1.7730573129   -1.3318565289    0.0555675803
C        0.2773311457    0.8242679608    0.1942988081
N        1.3613751186    2.0365409856   -1.9197189326
N       -1.1913227961    0.9108314380    0.1723621686
N       -0.7573022660   -1.3064994188    0.0911894118
N        0.8682049679    1.4878202029   -0.9739557174
N        1.8227321580   -2.6275193672   -0.2958711529
O        2.7942452566   -0.6755391473    0.1547590081
H       -2.7725680151   -0.4822412802    0.0993108338
H        0.7080044694    1.2170656573    1.1249217880
H        2.7417109592   -3.0533836607   -0.3786883018
H        0.9749152648   -3.1821534764   -0.3713891958
14   

C       -1.7273880306   -0.3290658655    0.1096092811
C        0.3844786400   -0.7221975334    0.2211090475
C        1.7549254493   -1.3379939925    0.1760723541
C        0.2360204193    0.8170008366    0.1814011877
N        1.3688773289    1.9233672430   -1.9647678072
N       -1.2320606069    0.8847993045    0.1134096093
N       -0.7725798209   -1.3288754657    0.1533021658
N        0.8551146208    1.4210101445   -1.0042663481
N        1.8391590504   -2.5547442420   -0.3971478306
O        2.7631819513   -0.6933524348    0.4006212601
H       -2.7958370209   -0.5288625680    0.0707426344
H        0.6353788312    1.2651072653    1.1010742004
H        2.7656383634   -2.9654087359   -0.4741398536
H        1.0039932748   -3.1060420450   -0.5720893856
14   

C       -1.7313605568   -0.3398430723    0.0281246221
C        0.3690076636   -0.7524051844    0.2530198917
C        1.7269031564   -1.4014634872    0.2965033448
C        0.2382949966    0.7905043621    0.1545090687
N        1.4562056746    1.8098703909   -1.9880017758
N       -1.2248276348    0.8693739613    0.0240069512
N       -0.7897428551   -1.3473223117    0.1351126040
N        0.9068521974    1.3452485125   -1.0281148298
N        1.8911293754   -2.4848975083   -0.4952976491
O        2.7050852071   -0.8111684501    0.7159537615
H       -2.7993858669   -0.5307750412   -0.0483883035
H        0.6068781916    1.2664718124    1.0732289241
H        2.8230528759   -2.8900873328   -0.5202911018
H        1.0864239118   -3.0090141685   -0.8261539969
14   

C       -1.7346159214   -0.2961783852   -0.0345810178
C        0.3474558878   -0.7520451430    0.2677182009
C        1.6803901280   -1.4461387210    0.3928176440
C        0.2566422194    0.7940776668    0.1112689789
N        1.5279527262    1.7105686309   -2.0465529535
N       -1.2007100033    0.9011425088   -0.0569683406
N       -0.8201751900   -1.3216451866    0.1231879351
N        0.9571795379    1.2908138952   -1.0784374505
N        1.9729381869   -2.3616467768   -0.5622428206
O        2.5966566576   -0.9443017175    1.0160102947
H       -2.8046889188   -0.4650553787   -0.1313500728
H        0.6169671160    1.2942736972    1.0205454316
H        2.9052086267   -2.7647677593   -0.5154176710
H        1.2279045215   -2.8434227086   -1.0562247542
14   

C       -1.7534620399   -0.2775817475   -0.0181616234
C        0.3180538823   -0.7738718897    0.2958949870
C        1.6277624011   -1.5074585558    0.4643432764
C        0.2640426328    0.7698119380    0.0774664115
N        1.5299485563    1.5785118598   -2.1261838434
N       -1.1911251191    0.9049266298   -0.0884170104
N       -0.8635315406   -1.3180763646    0.1743201160
N        0.9633800057    1.2058911870   -1.1364424071
N        2.0526648457   -2.2348355626   -0.6018773895
O        2.4640827875   -1.1257644087    1.2600558774
H       -2.8278168655   -0.4242725226   -0.1028013210
H        0.6402185315    1.2970168207    0.9649367691
H        2.9793041616   -2.6416442163   -0.4997185602
H        1.3782062170   -2.6581712170   -1.2315825303
14   

C       -1.7680036296   -0.2460632721    0.0784402768
C        0.2996597480   -0.7920059971    0.3356095833
C        1.5871909244   -1.5656348305    0.5192980856
C        0.2807000240    0.7442573086    0.0490003350
N        1.4763523982    1.4389574306   -2.2315936911
N       -1.1751228895    0.9140335910   -0.0720576948
N       -0.9019335702   -1.3019441978    0.2909031568
N        0.9425149546    1.1158802238   -1.2067354076
N        2.1277107170   -2.0930091785   -0.6171458446
O        2.3326386147   -1.3501205921    1.4545913418
H       -2.8484772212   -0.3646038338    0.0401717152
H        0.6993815198    1.2988092482    0.9000618252
H        3.0428225240   -2.5170079027   -0.4815918920
H        1.5209704414   -2.4350934067   -1.3552428932
14   

C       -1.7830053046   -0.1865550706    0.2354840899
C        0.2774416643   -0.8051179342    0.3704896714
C        1.5384658250   -1.6240434986    0.5644918811
C        0.2934019919    0.7187467279    0.0131790579
N        1.3402337325    1.3014629722   -2.3699755424
N       -1.1600923598    0.9389915341   -0.0203974680
N       -0.9433418667   -1.2615066399    0.4521804925
N        0.8745249525    1.0259016996   -1.2988546765
N        2.1992214636   -1.9494307370   -0.5922723189
O        2.1516242087   -1.6505247950    1.6129176332
H       -2.8671063800   -0.2648748771    0.2750030657
H        0.7827975460    1.2946890259    0.8105422640
H        3.0900485320   -2.4142010043   -0.4275342686
H        1.6722439760   -2.1727307244   -1.4295691030
14   

C       -1.7822577413   -0.0887040926    0.4085796410
C        0.2545751482   -0.8047040013    0.3858589030
C        1.4831073331   -1.6721015969    0.5933588622
C        0.3027634664    0.7012822517   -0.0464225339
N        1.1195014407    1.1642441312   -2.5437473335
N       -1.1360686827    0.9906524213    0.0378556752
N       -0.9729467910   -1.1864197943    0.6172558412
N        0.7596672273    0.9387111062   -1.4210006552
N        2.2774708666   -1.8110286572   -0.5236492329
O        1.8931556068   -2.0366238443    1.6770985607
H       -2.8611120523   -0.1146675832    0.5441729301
H        0.8848489382    1.2910978356    0.6746709081
H        3.1183709442   -2.3561729747   -0.3406650806
H        1.8619042591   -1.8462026469   -1.4466199143
14   

C       -1.7614677386   -0.0206328354    0.5550428644
C        0.2390099571   -0.8274062185    0.3870258388
C        1.4329334211   -1.7487110592    0.5755436052
C        0.3093620072    0.6659019749   -0.0871899648
N        0.8673692099    1.0463524961   -2.6691896536
N       -1.1016752214    1.0233525542    0.1149613496
N       -0.9825172251   -1.1446862946    0.7263737499
N        0.6280886048    0.8558196017   -1.5079535152
N        2.3557810668   -1.7023535717   -0.4539749633
O        1.6538451298   -2.4247132861    1.5605393898
H       -2.8264446140    0.0005519361    0.7749464154
H        0.9802595789    1.2495704253    0.5575017789
H        3.1469121627   -2.3252433087   -0.2974812377
H        2.0863332681   -1.4777401920   -1.4020388454
14   

C       -1.7440562997    0.0401225100    0.6212171129
C        0.2232454515   -0.8375290676    0.3737468881
C        1.3764366113   -1.8157945417    0.5457294184
C        0.3118612943    0.6465596772   -0.1325364808
N        0.6858640808    0.9195383099   -2.7619193243
N       -1.0711958782    1.0579584097    0.1424686476
N       -0.9940611432   -1.1057847221    0.7691587154
N        0.5335486575    0.7803557734   -1.5784210849
N        2.4332023924   -1.6226293154   -0.3283450838
O        1.4316011097   -2.7110602671    1.3656698089
H       -2.7960416694    0.0978491670    0.8913557700
H        1.0418849349    1.2240902424    0.4502238219
H        3.1839393317   -2.3009816461   -0.2071550143
H        2.3880103732   -1.0650158411   -1.1684768043
14   

C       -1.7418866146   -0.3644457885   -0.1653239463
C        0.3485540042   -0.7484078713    0.2830202006
C        1.6090552851   -1.5423752629    0.5939521648
C        0.1247883611    0.8000940600    0.3898817965
N        1.3787938912    2.1746236550   -1.5254200039
N       -1.3121585468    0.8463085014    0.0918902907
N       -0.7705424216   -1.3347122739   -0.0574998514
N        0.8298242974    1.5509186842   -0.6575904350
N        2.7542834529   -0.7673156778    0.7026709921
O        1.6982898189   -2.7536592115    0.6408205441
H       -2.7740173765   -0.5862656328   -0.4270357680
H        0.3509174433    1.1762086349    1.3959888038
H        3.5973942840   -1.3152161151    0.8687519857
H        2.7787078116    0.2382325636    0.7907926471
14   

C       -1.7513688639   -0.3569983877   -0.1102402706
C        0.3455043941   -0.7562158356    0.2806253148
C        1.6294302241   -1.5332064724    0.5137434681
C        0.1503806891    0.7957634342    0.3433430871
N        1.4001029183    2.0680320721   -1.6437239831
N       -1.2941371347    0.8553194070    0.0863422087
N       -0.7916484589   -1.3387993149    0.0000816842
N        0.8496376748    1.4925643131   -0.7443461129
N        2.7221039350   -0.7306094263    0.8123324212
O        1.7838769710   -2.7280157282    0.3537909225
H       -2.7948396975   -0.5707230938   -0.3304517088
H        0.4074573703    1.2016357714    1.3296614992
H        3.5811583738   -1.2648749596    0.9366427846
H        2.6632762659    0.2087794291    1.1800359397
14   

C       -1.7647362601   -0.3478536958   -0.0313194758
C        0.3426580357   -0.7366986184    0.2981037189
C        1.6517761835   -1.4883338979    0.4544104601
C        0.1542394689    0.8166830181    0.3084826950
N        1.3690235032    1.9948665598   -1.7560876257
N       -1.2982384099    0.8702305162    0.0981546775
N       -0.8034830227   -1.3284211676    0.0824311276
N        0.8317395740    1.4628074192   -0.8229378036
N        2.6887786218   -0.7091008631    0.9405229988
O        1.8673774826   -2.6302821319    0.0991967349
H       -2.8158763478   -0.5663115611   -0.2056243300
H        0.4435888130    1.2595639942    1.2690806621
H        3.5616758282   -1.2292482137    1.0198122018
H        2.5496083520    0.1060044747    1.5230888399
14   

C       -1.7517018648   -0.3385324099    0.0232376746
C        0.3658459686   -0.7068239256    0.2950943158
C        1.6941680767   -1.4335579347    0.3945407396
C        0.1715100070    0.8460139922    0.2580722620
N        1.3303890391    1.9419739972   -1.8820189134
N       -1.2877447853    0.8855129406    0.0955742515
N       -0.7822830998   -1.3119435544    0.1368640810
N        0.8167673700    1.4476611476   -0.9155440876
N        2.6691108802   -0.7380782834    1.0790351526
O        1.9704056013   -2.4819969660   -0.1541566501
H       -2.8070296122   -0.5664886213   -0.1083513923
H        0.4937285447    1.3236683344    1.1909702120
H        3.5512333199   -1.2460501795    1.1257896485
H        2.4533496362   -0.0664688017    1.8053570706
14   

C       -1.7473095602   -0.3422131547    0.0959795925
C        0.3815438403   -0.6771151668    0.2972371969
C        1.7274310793   -1.3741258488    0.3559239051
C        0.1693303269    0.8719650175    0.2097125435
N        1.2416281961    1.8802340313   -2.0165404713
N       -1.2959732946    0.8888816007    0.1059061109
N       -0.7629917097   -1.3019472862    0.2074046824
N        0.7657268284    1.4266630799   -1.0116517961
N        2.6324487356   -0.8119915624    1.2206433041
O        2.0794030123   -2.2681477706   -0.3881457731
H       -2.8042916754   -0.5852301395    0.0139993912
H        0.5283181207    1.3879314102    1.1083122125
H        3.5268387367   -1.2994007978    1.2328586458
H        2.3431918307   -0.2953280985    2.0430490308
14   

C       -1.6973097202   -0.3432881352    0.1734622755
C        0.4404894801   -0.6331122577    0.2944091480
C        1.8085438749   -1.2822926151    0.3324212919
C        0.2002034656    0.9080628477    0.1638755492
N        1.1844982494    1.8325339117   -2.1377363820
N       -1.2685906858    0.8950482274    0.1191752526
N       -0.6926074553   -1.2834663180    0.2834404217
N        0.7458871860    1.4191445765   -1.0992960974
N        2.6231474973   -0.8926953201    1.3556022831
O        2.2817492309   -1.9034664151   -0.5991556173
H       -2.7523785209   -0.6056423083    0.1421090954
H        0.5903955870    1.4592905818    1.0281852028
H        3.5473402358   -1.3190044357    1.3262727269
H        2.2487988995   -0.5803178297    2.2449177724
14   

C       -1.6792619470   -0.3261297962    0.2997743621
C        0.4597158670   -0.5986504840    0.3087769703
C        1.8439117054   -1.2027690333    0.3335417871
C        0.2068037792    0.9306732103    0.1116478431
N        1.0999913983    1.7223569321   -2.2745175030
N       -1.2627907857    0.9077112369    0.1413751873
N       -0.6637877847   -1.2551617266    0.4197721427
N        0.6985591619    1.3712769175   -1.1990733738
N        2.5802614216   -1.0076679452    1.4574601454
O        2.4277067672   -1.5081829761   -0.6889108679
H       -2.7330006350   -0.5926389762    0.3395443233
H        0.6380241223    1.5243236224    0.9272658267
H        3.5334919495   -1.3594823637    1.4000298940
H        2.1394545162   -0.8986427540    2.3649302454
14   

C       -1.6501918699   -0.3072786746    0.4359387706
C        0.4856122177   -0.5627934452    0.3410906135
C        1.8849345913   -1.1207718136    0.3602427515
C        0.2110497949    0.9472073669    0.0661652440
N        1.0081585276    1.6141317299   -2.3906145004
N       -1.2557219467    0.9142154232    0.1652625986
N       -0.6195201176   -1.2178300475    0.5750759338
N        0.6462301794    1.3197514764   -1.2848801952
N        2.5459333391   -1.1279410189    1.5393450526
O        2.5488004243   -1.1764315034   -0.6584440900
H       -2.6980006390   -0.5774000550    0.5459128949
H        0.6725155375    1.5874486270    0.8284291547
H        3.5174797669   -1.4246203558    1.4855141968
H        2.0473292948   -1.1800891674    2.4218970135
14   

C       -1.6190810874   -0.2698744689    0.5164370607
C        0.5117357388   -0.5169950385    0.3501013812
C        1.9224868327   -1.0388321313    0.3794549617
C        0.2160623447    0.9676361074   -0.0085262956
N        0.9273084714    1.5110976743   -2.5211100728
N       -1.2462815168    0.9313776635    0.1444060034
N       -0.5748967590   -1.1609175174    0.6823371787
N        0.6015096020    1.2708186354   -1.3915868606
N        2.4964020544   -1.2534288673    1.5800398381
O        2.6552744295   -0.9070220809   -0.5841449497
H       -2.6597248425   -0.5382231706    0.6838029941
H        0.6979406065    1.6540557696    0.6991319987
H        3.4777128087   -1.5191331190    1.5573839227
H        1.9349093215   -1.4329129541    2.4065278349
14   

C       -1.5892537518   -0.2581467640    0.5702140204
C        0.5419548465   -0.4705212327    0.3761538444
C        1.9677113205   -0.9442189985    0.4209996901
C        0.2114892658    0.9814541624   -0.0582800305
N        0.8657985680    1.4235416765   -2.6058302769
N       -1.2472853885    0.9261957526    0.1228433799
N       -0.5238623164   -1.1175172999    0.7666910044
N        0.5643624726    1.2264903988   -1.4614719136
N        2.4545427461   -1.3685678446    1.6010429526
O        2.7567395921   -0.6483346888   -0.4584863890
H       -2.6211295604   -0.5359881084    0.7727245067
H        0.6918660472    1.7130109299    0.6039083515
H        3.4423580797   -1.6081474958    1.6195928129
H        1.8351143936   -1.6641066608    2.3493070350
14   

C       -1.7185994216   -0.3035596296    0.1116127247
C        0.3696438190   -0.7438078203   -0.1461933379
C        1.7067045497   -1.3940819814   -0.3581411197
C        0.2963067926    0.7348939343    0.3039455367
N        1.2683918974    2.3992365559   -1.5395573164
N       -1.1666787049    0.8474657310    0.4115158735
N       -0.8121585719   -1.2992292435   -0.2037026590
N        0.8240510078    1.6527837124   -0.7123202055
N        1.8863852030   -2.6263303012    0.1450787747
O        2.6768788624   -0.7536085896   -0.7222198859
H       -2.7949676425   -0.4597668576    0.1160891771
H        0.8035220531    0.8797653983    1.2664871678
H        2.8151362771   -3.0282438930    0.0501817063
H        1.0973113814   -3.1955493792    0.4360665219
14   

C       -1.7060140734   -0.2981534900    0.1122636410
C        0.3901938733   -0.7301349238   -0.0835396648
C        1.7393819386   -1.3651612835   -0.2542185729
C        0.2961868070    0.7704192003    0.2705846787
N        1.2759918928    2.3383132132   -1.6517430411
N       -1.1693150149    0.8739476293    0.3516863400
N       -0.7855012737   -1.2999815480   -0.1358385982
N        0.8281801644    1.6337058811   -0.7904718971
N        1.8506531664   -2.6666299661    0.0501410765
O        2.7390570125   -0.7063104063   -0.4794552672
H       -2.7807445303   -0.4653446845    0.1132172936
H        0.7886829051    0.9785938666    1.2293126662
H        2.7752291637   -3.0822427310   -0.0224750079
H        1.0297377941   -3.2368142963    0.2308192664
14   

C       -1.7037635806   -0.2952733361    0.1268189460
C        0.3984774884   -0.7219934193   -0.0024243345
C        1.7559785486   -1.3451779884   -0.1433545785
C        0.2885924185    0.7959980554    0.2512724117
N        1.2893435894    2.2532926558   -1.7458842045
N       -1.1787427593    0.8931582882    0.3030083793
N       -0.7726532847   -1.3022576483   -0.0512146378
N        0.8323960592    1.5969622280   -0.8519284483
N        1.8288888149   -2.6803349572   -0.0529481647
O        2.7696838228   -0.6783201680   -0.2522362469
H       -2.7771966524   -0.4705816478    0.1234069769
H        0.7638797033    1.0675010975    1.2029663685
H        2.7501058758   -3.1036689395   -0.1225578194
H        0.9913971084   -3.2483653231    0.0356636290
14   

C       -1.7056256463   -0.3041925727    0.1204187009
C        0.4025670370   -0.7196837734    0.0677136265
C        1.7671851627   -1.3332383370   -0.0468988937
C        0.2749303119    0.8107605644    0.2196947955
N        1.3111637243    2.1516879503   -1.8399224765
N       -1.1938671576    0.8975305935    0.2342294221
N       -0.7631504841   -1.3111634693    0.0172258703
N        0.8387434448    1.5463629729   -0.9184384959
N        1.8233543802   -2.6665452237   -0.1770542315
O        2.7855480039   -0.6647881218   -0.0503437846
H       -2.7773461562   -0.4892965137    0.1078166493
H        0.7263743239    1.1454958942    1.1629527222
H        2.7434780586   -3.0913052246   -0.2519774870
H        0.9787543075   -3.2310624088   -0.1715171439
