23

C     -2.25293    0.48506   -3.73914
C     -2.90467   -0.38859   -2.82495
C     -1.16207   -0.09405   -4.34516
C     -2.30333   -1.63085   -2.74463
C     -4.86694   -3.80940    0.57798
C     -6.64133   -3.31225    1.74105
C     -2.66259   -2.78161   -1.93664
N     -4.70984   -4.33596    1.76418
N     -5.85742   -4.02911    2.50727
N     -3.72106   -2.78309   -1.20211
N     -6.07114   -3.14667    0.48832
N     -6.66414   -2.49808   -0.60569
N     -3.99778   -3.94293   -0.50095
S     -0.91753   -1.71720   -3.80526
S     -8.19339   -2.62935    2.20392
H     -2.57075    1.50304   -3.93913
H     -3.77319   -0.12189   -2.23317
H     -0.48928    0.34111   -5.07294
H     -1.99659   -3.65305   -1.97327
H     -6.87967   -3.20269   -1.31288
H     -5.96004   -1.87620   -1.00380
H     -3.20649   -4.54690   -0.27181
H     -8.38176   -2.04523    0.99927
