41

C     -2.45158    4.24126    5.46141
C     -1.96060    3.02077    5.93948
C     -1.88449    4.81093    4.31781
C     -0.91279    2.37496    5.27904
C     -0.83686    4.16081    3.65682
C     -0.34028    2.93796    4.12833
C      0.63083    0.72788    3.31060
C      0.17549   -1.70432    0.95643
C     -0.30162    1.21668    0.14314
C     -0.44414   -1.19041    2.26625
C     -1.03736    1.09769    1.49066
C     -0.22615   -2.26626   -1.51170
C     -0.65209   -1.39196   -0.30268
C     -0.56584    0.05862   -0.82554
C      0.80958    2.24295    3.42079
N      0.98965   -1.69845   -2.12054
N     -0.33117    0.25253    2.44744
O      1.31330   -0.02734    4.00656
O      2.03231    0.59824   -1.63656
O      0.19442    0.42131   -3.39626
S      0.77883    0.00267   -2.12152
H     -3.26692    4.74291    5.97604
H     -2.39391    2.57231    6.82995
H     -2.25610    5.75961    3.93886
H     -0.53315    1.42867    5.65683
H     -0.39958    4.61147    2.76770
H      1.19976   -1.32368    0.87303
H      0.25132   -2.79524    1.04426
H     -0.60078    2.14546   -0.35414
H      0.77072    1.30290    0.33776
H     -1.50644   -1.46601    2.30408
H      0.05749   -1.65587    3.11368
H     -1.17894    2.08732    1.92178
H     -2.04355    0.68586    1.35073
H     -0.02367   -3.29892   -1.22014
H     -1.01075   -2.27935   -2.27443
H     -1.70273   -1.61208   -0.07817
H     -1.45854    0.26511   -1.42130
H      0.97050    2.69236    2.43620
H      1.73305    2.37515    3.98995
H      1.82130   -1.89189   -1.56154
