39

C      4.25009   -4.67352    5.04698
C      3.40962    2.43788   -3.63911
C      2.97822   -4.24863    4.71976
C      2.94309    2.01679   -2.39483
C      5.37928   -3.88096    4.72804
C      1.42160   -1.28555    3.04751
C      2.49462    2.57143   -4.68913
C      0.75801    1.90981   -3.35547
C      2.79790   -3.00695    4.05953
C      1.57804    1.73980   -2.22941
C      3.91831   -2.18433    3.72454
C      1.51608   -2.50231    3.68794
C      5.20236   -2.67786    4.08646
C      2.60945   -0.55868    2.77078
C      1.26798    2.11105    0.36731
C      1.65017    0.10378   -0.15481
C      0.99544    1.28620   -0.92334
C      2.51363    0.79498    2.09586
N      1.18683    2.31361   -4.55889
N      3.81955   -0.98431    3.08571
N      1.44244    0.84383    1.11524
O      0.43574   -3.27591    3.99734
F      6.28328   -1.92836    3.78489
H      4.39628   -5.62313    5.55373
H      4.46126    2.65916   -3.79909
H      2.10873   -4.85042    4.96063
H      3.63535    1.90437   -1.56356
H      6.38487   -4.20404    4.98002
H      0.46767   -0.86689    2.73647
H      2.82621    2.89813   -5.67366
H     -0.31034    1.70611   -3.27656
H      2.19742    2.69593    0.28778
H      0.46556    2.75919    0.73519
H      1.15615   -0.87158   -0.20877
H      2.71416   -0.01992   -0.40783
H     -0.07727    1.11217   -1.03785
H      2.30704    1.55648    2.86013
H      3.50249    1.02648    1.66559
H     -0.37140   -2.82557    3.69847
