41

C      0.31438   -3.85031    4.06279
C      1.41854   -3.93746    3.21095
C      0.03277   -2.63699    4.70363
C      2.22789   -2.81693    2.99938
C      0.83749   -1.51557    4.48288
C      1.94083   -1.59178    3.61682
C      1.89594    0.82659    2.96015
C     -0.36936    1.67739    0.22860
C      1.57188   -0.89913    0.13998
C      0.59221    2.09738    1.35030
C      2.25172    0.42727    0.50098
C     -1.28283   -0.37546    1.57586
C     -0.83882    0.21315    0.20947
C      0.15070   -0.78595   -0.42322
C      2.79006   -0.36052    3.32178
N     -1.28398   -1.85288    1.46956
N      1.63192    1.10347    1.63994
O      1.36280    1.46741    3.87201
O      0.11263   -3.51656    0.09510
O     -1.90450   -2.40336   -0.98172
S     -0.76001   -2.34695   -0.06919
H     -0.32649   -4.71387    4.21730
H      1.63513   -4.86396    2.68824
H     -0.82383   -2.56024    5.36835
H      3.07734   -2.89550    2.32462
H      0.60649   -0.57132    4.96640
H     -1.24973    2.32476    0.31368
H      0.06172    1.90288   -0.75333
H      2.18864   -1.43406   -0.58954
H      1.56234   -1.52240    1.03310
H      1.05459    3.05755    1.08587
H      0.05177    2.25717    2.28221
H      3.30626    0.23881    0.71285
H      2.23988    1.12119   -0.34491
H     -0.60684   -0.08188    2.37971
H     -2.28709   -0.02025    1.82418
H     -1.71523    0.18619   -0.44591
H      0.15682   -0.66876   -1.50925
H      3.33349   -0.05585    4.22049
H      3.52679   -0.60325    2.55482
H     -0.73378   -2.32308    2.18713
