47

C      5.30702   -3.44179   -5.52239
C      4.02627   -6.27786   -3.49877
C      3.53320   -5.61590   -2.36672
C      4.60397   -5.53272   -4.52190
C      3.61737   -4.23060   -2.26233
C      4.63374   -0.93814   -3.90964
C      4.38494    0.24443   -3.14276
C      4.69472   -4.13210   -4.42504
C      4.19809   -3.44988   -3.28369
C      4.25450   -2.00410   -3.12457
C      3.87907   -0.16258   -1.93733
C     -0.36410    1.70298    0.46180
C      0.23177    1.68631   -0.96987
C     -0.32492   -0.77647    1.08550
C      1.80721    0.64472    1.07823
C      0.11641   -0.85123   -1.33305
C      0.29846    0.61950    1.33277
C      1.01707    0.39113   -1.25072
C     -1.65930   -2.15748   -0.37738
C      3.43015    0.57098   -0.71612
N      5.80717   -2.90973   -6.43151
N     -0.87467   -0.93655   -0.26148
N      2.10346    0.16748   -0.27280
O      3.79708   -1.52539   -1.91327
H      3.96022   -7.35868   -3.58090
H      3.07799   -6.18510   -1.56056
H      4.99448   -6.02094   -5.40952
H      3.22877   -3.72864   -1.38368
H      5.02972   -0.98438   -4.91252
H      4.55484    1.26805   -3.44995
H     -0.19407    2.68292    0.92235
H     -1.44326    1.53793    0.42806
H     -0.55633    1.80443   -1.72029
H      0.91745    2.53210   -1.10090
H      0.41713   -1.56095    1.32898
H     -1.16392   -0.90724    1.77814
H      2.16502    1.67997    1.23913
H      2.33702    0.00980    1.80151
H     -0.43511   -0.82794   -2.28177
H      0.78151   -1.73384   -1.35687
H      0.14533    0.86210    2.39031
H      1.48935    0.47829   -2.23387
H     -2.12316   -2.20555   -1.36833
H     -2.45853   -2.16067    0.37133
H     -1.05661   -3.07643   -0.24067
H      4.12671    0.36183    0.10660
H      3.51511    1.65379   -0.92949
