25   

C       -0.1555571458   -5.5676490939   -3.7995184772
C        0.0992256823   -4.7720808714   -2.6070423853
C       -0.4205169350   -4.7861147469   -4.8931242984
C        0.0067534785   -1.0221062759   -1.8714388866
C        0.2404608229   -2.3720519471   -1.8595235012
C       -0.0001617853   -3.4173698093   -2.8393193816
C        0.4789741482   -0.5399222061   -0.5865619300
C       -2.1476584905   -0.2841318171   -2.9539115986
C        0.3895004645    0.8572735414   -0.0471086146
C       -0.6261115453   -0.1508940110   -2.9391944721
N        0.9583028058   -1.5346413910    0.1121762959
N        0.8188893528   -2.6537362351   -0.6506856914
O       -2.6994981033   -0.4840845804   -4.0236473772
O       -2.8151768821   -0.1484795638   -1.7800565894
S       -0.3707744533   -3.0698988982   -4.5109459257
H       -0.1399284027   -6.6521116984   -3.8202983305
H        0.3300201211   -5.2159592648   -1.6466148812
H       -0.6405755348   -5.1684387950   -5.8832680292
H       -0.4914842645    1.3669820052   -0.4453518932
H        0.3181297470    0.8327176637    1.0441566910
H        1.2850240066    1.4178962611   -0.3271805009
H       -0.2179342673   -0.3927702824   -3.9224685674
H       -0.3820677139    0.8977516853   -2.7558632700
H        1.1266599477   -3.5814667378   -0.3718821548
H       -3.7556702907   -0.2837350765   -1.9783915834
25   

C       -0.0995011226   -5.4614412449   -4.0047691856
C        0.0021042403   -4.6966327694   -2.7702004472
C       -0.0063407107   -4.6620352234   -5.1138002965
C        0.1353696545   -0.9883672973   -1.9350711531
C        0.3398292724   -2.3406023283   -1.9612229066
C        0.1325320198   -3.3438956784   -2.9927386050
C        0.5521731163   -0.5649793041   -0.6100539984
C       -2.0100907790   -0.2221482436   -2.9531917807
C        0.5108086382    0.8184437824   -0.0302459423
C       -0.4901000431   -0.0938352724   -2.9853057106
N        0.9881671305   -1.5947047974    0.0672054228
N        0.8747282051   -2.6797696321   -0.7478975860
O       -2.5638976900   -0.8449920653   -3.8442403504
O       -2.6757028209    0.4127418900   -1.9556515878
S        0.2027502305   -2.9659761450   -4.6950898536
H       -0.2369629354   -6.5367354545   -4.0431327887
H       -0.0386395721   -5.1529126400   -1.7885292779
H       -0.0612842335   -5.0198754486   -6.1354395970
H       -0.4547483260    0.9777885209    0.4579437130
H        1.3014374231    0.9352604398    0.7163896329
H        0.6423192729    1.5737757587   -0.8077997070
H       -0.1145355710   -0.3334501044   -3.9813905767
H       -0.2315841774    0.9501819193   -2.7982303256
H        1.1778116439   -3.6197549247   -0.5057687079
H       -3.6172889660    0.2110355837   -2.0802482638
25   

C       -0.0966305081   -5.4156494198   -3.9742052963
C       -0.0989145868   -4.6245790578   -2.7519369330
C        0.2581345908   -4.6701114078   -5.0687043430
C        0.1781709410   -0.9499514657   -1.9335738859
C        0.3992661791   -2.2969924972   -1.9443949881
C        0.2026457551   -3.3020727775   -2.9789424208
C        0.6166918326   -0.5023183826   -0.6242049696
C       -2.0025968047   -0.1961162082   -2.8694042592
C        0.5593222702    0.8865580871   -0.0595405422
C       -0.4852259331   -0.0972516050   -2.9937131478
N        1.0872804634   -1.5165380798    0.0546461056
N        0.9749828727   -2.6141193461   -0.7450194134
O       -2.6092860359   -0.8996924569   -3.6603807737
O       -2.6076104538    0.5470714455   -1.9088543436
S        0.5926513949   -2.9929134980   -4.6525641157
H       -0.3497101841   -6.4696394548   -4.0150714446
H       -0.3289238699   -5.0345258431   -1.7754738276
H        0.3199087480   -5.0557096792   -6.0798090836
H       -0.3558783368    1.0007311412    0.5280587671
H        1.4164629438    1.0580529928    0.5975854046
H        0.5631440562    1.6354390517   -0.8540782031
H       -0.1768351320   -0.4045947569   -3.9944084983
H       -0.1939978006    0.9488083436   -2.8790528469
H        1.3046766980   -3.5460115269   -0.5046542283
H       -3.5563327685    0.3469992861   -1.9625652792
25   

C       -0.1327331438   -5.4313970585   -3.9618717432
C       -0.2268525517   -4.6146915438   -2.7599915693
C        0.4587235821   -4.7558314174   -4.9989242570
C        0.1456912277   -0.9968552648   -1.9155189268
C        0.4144036417   -2.3321734013   -1.9144152642
C        0.2384271745   -3.3374744119   -2.9568747610
C        0.6085297189   -0.5137115140   -0.6283693000
C       -2.0736423892   -0.2448149032   -2.7500910688
C        0.5155248675    0.8816668107   -0.0859366800
C       -0.5666442690   -0.1988073125   -2.9844549608
N        1.1407978573   -1.5002084393    0.0470447209
N        1.0454399433   -2.6131347011   -0.7350036433
O       -2.7428512197   -1.0272049087   -3.4050035203
O       -2.6014327459    0.6241620823   -1.8518981163
S        0.9110374363   -3.1131745276   -4.5547314065
H       -0.4918681785   -6.4526713798   -4.0299585132
H       -0.6306330971   -4.9700911912   -1.8188557737
H        0.6245055702   -5.1720836509   -5.9859020607
H       -0.3484739232    0.9544272172    0.5803366170
H        1.4156371262    1.1194049575    0.4876522530
H        0.4001186074    1.6098437527   -0.8914380010
H       -0.3412330959   -0.5938060817   -3.9774484734
H       -0.2364038014    0.8421574657   -2.9661256247
H        1.4168802702   -3.5300112254   -0.4964462721
H       -3.5546036960    0.4407280056   -1.8197695348
25   

C       -1.0488269045   -5.2732028833   -4.2221216866
C       -1.2601006613   -4.4086072935   -3.0692936021
C        0.1639369026   -5.0456996425   -4.8233899881
C        0.0237001505   -1.2552224328   -1.7469680763
C       -0.0727358126   -2.6112370407   -1.7546113880
C       -0.2230728286   -3.5303678158   -2.8823393920
C        0.2340594020   -0.8957984000   -0.3582334021
C       -1.5811541171    0.1103371676   -3.0654445497
C        0.3769272716    0.4824358326    0.2153852210
C       -0.1254337943   -0.3255457224   -2.9284368938
N        0.2844726259   -1.9799618420    0.3739962604
N        0.1138398266   -3.0380588155   -0.4703214631
O       -2.3152064769   -0.5279068332   -3.8023200083
O       -1.9771742631    1.2166421094   -2.3878922306
S        1.0835100374   -3.7768030735   -4.0191036225
H       -1.7692667169   -6.0067686398   -4.5677153157
H       -2.1406557588   -4.4406941042   -2.4375191676
H        0.5207883299   -5.5741239347   -5.6999178654
H       -0.5771401219    0.7965386038    0.6473628434
H        1.1312193829    0.4801285389    1.0070766638
H        0.6666790433    1.1994408465   -0.5558179666
H        0.1920629885   -0.8234211053   -3.8484600232
H        0.5034282042    0.5583388035   -2.7981753553
H        0.1394213837   -4.0183406460   -0.1975645552
H       -2.9231297379    1.3299681592   -2.5767035236
25   

C       -1.1407991184   -4.7988558047   -4.5340618451
C       -1.3191978331   -3.9631115194   -3.3548104750
C        0.1838666130   -4.9668042514   -4.8541458048
C       -0.0898802343   -1.2838579053   -1.6953123724
C        0.0409160556   -2.6362598419   -1.6980115104
C       -0.1225733426   -3.5723850782   -2.8116490179
C        0.1076375676   -0.8841643303   -0.3165271446
C       -1.8654078078   -0.0187455644   -2.9068447401
C        0.1204999553    0.5123803860    0.2293364514
C       -0.3879583944   -0.3956330532   -2.8799889564
N        0.3053127841   -1.9449384376    0.4249743225
N        0.2551344671   -3.0261930215   -0.4066000802
O       -2.6690705839   -0.8341192598   -3.3307285753
O       -2.2098371006    1.2206274155   -2.4781851001
S        1.2566299066   -4.1259307267   -3.7376274757
H       -1.9620248858   -5.2279796682   -5.0979791591
H       -2.2831027488   -3.6556566407   -2.9626907205
H        0.5394355308   -5.5470080108   -5.6978020921
H       -0.8551167069    0.7438232708    0.6645136277
H        0.8793447668    0.5987868509    1.0121760690
H        0.3363291462    1.2362937534   -0.5598511578
H       -0.1301103090   -0.9067055979   -3.8117914712
H        0.2173258307    0.5130683156   -2.8279589499
H        0.3623954848   -3.9966732233   -0.1186702426
H       -3.1765520214    1.2783694303   -2.5515750545
25   

C       -1.0895905815   -4.6703734936   -4.6737367323
C       -1.2650358107   -3.7769183405   -3.5377019432
C        0.2045697892   -5.1106639637   -4.7898510054
C       -0.1541674776   -1.3271795378   -1.7106081704
C        0.0752670196   -2.6694887443   -1.7163071596
C       -0.1133948575   -3.6243547523   -2.8065492069
C        0.0741809124   -0.9048883591   -0.3430299700
C       -1.9923422142   -0.0245112337   -2.8166619960
C        0.0419468736    0.4958524221    0.1914818626
C       -0.5284707457   -0.4480283433   -2.8829221188
N        0.3635306297   -1.9450812344    0.3959720545
N        0.3474586871   -3.0328222863   -0.4275135627
O       -2.8423987950   -0.7969908624   -3.2290031534
O       -2.2734132779    1.2122902377   -2.3383324204
S        1.2461820053   -4.4653622591   -3.5249730045
H       -1.8898810728   -4.9460259759   -5.3521223343
H       -2.1968052114   -3.2753004156   -3.2999874944
H        0.5553075056   -5.7794295970   -5.5674104028
H       -0.9338926764    0.6937083197    0.6421891550
H        0.8114447323    0.6193488110    0.9588795365
H        0.2159119508    1.2200222909   -0.6078962634
H       -0.3474706964   -0.9737278234   -3.8245455739
H        0.1022909850    0.4448851623   -2.8886718848
H        0.5100268151   -3.9940477980   -0.1344357798
H       -3.2398690796    1.3050766603   -2.3667865231
25   

C       -1.0371082269   -4.6486458392   -4.7445455094
C       -1.2156196434   -3.6761488739   -3.6760922134
C        0.1835998797   -5.2696636554   -4.6792162734
C       -0.2186264874   -1.3362762664   -1.7094608042
C        0.0481214302   -2.6742984023   -1.7347131845
C       -0.1481538487   -3.6357111447   -2.8124791643
C        0.0595267767   -0.9150253955   -0.3499496411
C       -2.1047733544   -0.0134835053   -2.7247952558
C        0.0198936787    0.4810550390    0.1968416943
C       -0.6455937475   -0.4412097635   -2.8531690390
N        0.4117892297   -1.9493432394    0.3684571087
N        0.3895953636   -3.0320217950   -0.4603460692
O       -2.9701734607   -0.7541972671   -3.1619610497
O       -2.3649485705    1.1977518455   -2.1751931755
S        1.1479569273   -4.7021112598   -3.3202999035
H       -1.7835618887   -4.8513364131   -5.5050899124
H       -2.0965133829   -3.0537674521   -3.5734641974
H        0.5236802014   -6.0251371835   -5.3781467526
H       -0.9450497595    0.6588792306    0.6782791842
H        0.8103075252    0.6122665410    0.9413947280
H        0.1576150620    1.2145147488   -0.6010904022
H       -0.4983370024   -0.9486386309   -3.8101841605
H       -0.0156256250    0.4521162531   -2.8711088266
H        0.5926084843   -3.9892485074   -0.1796812855
H       -3.3311384082    1.2980985300   -2.1764707116
25   

C       -0.9666208620   -4.6208261727   -4.8208538577
C       -1.1275116332   -3.5804349870   -3.8155168070
C        0.1450402261   -5.3899309154   -4.5952232269
C       -0.2351740792   -1.3345375369   -1.7075356702
C        0.0384130219   -2.6726883389   -1.7614108733
C       -0.1577160718   -3.6249228291   -2.8423469620
C        0.0966621524   -0.9291589979   -0.3542394720
C       -2.1634197317   -0.0255182234   -2.6655619994
C        0.0662505257    0.4569778249    0.2188471974
C       -0.6941079104   -0.4099817959   -2.8159769201
N        0.4940332121   -1.9677529361    0.3327840176
N        0.4490549507   -3.0383987112   -0.5094492126
O       -3.0063484760   -0.7191730909   -3.2103858130
O       -2.4557553609    1.1074285482   -1.9817333242
S        1.0243376134   -4.8811960863   -3.1584293583
H       -1.6489778521   -4.7659245146   -5.6515536091
H       -1.9359994472   -2.8608760096   -3.8327275846
H        0.4532025019   -6.2187407879   -5.2221442829
H       -0.8841784390    0.6197564054    0.7333465972
H        0.8788521724    0.5801444905    0.9405455232
H        0.1742919479    1.2065124082   -0.5684417965
H       -0.5322929506   -0.8723450683   -3.7928821770
H       -0.0908598997    0.5014888330   -2.8027908045
H        0.6825198690   -3.9952452012   -0.2521680450
H       -3.4234524939    1.1914312574   -1.9901770708
25   

C       -0.8704283199   -4.6006146362   -4.8508239024
C       -1.0052089090   -3.4919301072   -3.9172504856
C        0.0975942252   -5.4886815381   -4.4627544780
C       -0.2572840483   -1.2996219485   -1.6975072242
C        0.0185843682   -2.6392502899   -1.7586590364
C       -0.1543661962   -3.5911959605   -2.8407439155
C        0.1012170172   -0.8944209218   -0.3499074565
C       -2.2197724625   -0.0576473089   -2.6757059267
C        0.0631818353    0.4865694467    0.2363153207
C       -0.7283840929   -0.3606815036   -2.7894562698
N        0.5312635761   -1.9285691102    0.3229490904
N        0.4794530155   -2.9966102015   -0.5210043851
O       -2.9983917048   -0.6941396490   -3.3665342114
O       -2.6001597392    0.9540245140   -1.8580141324
S        0.8702058162   -5.0100136487   -2.9568834712
H       -1.4709933858   -4.7084850384   -5.7477241246
H       -1.7221211802   -2.6946474266   -4.0589532526
H        0.3609936933   -6.3855500880   -5.0115557110
H       -0.8808402469    0.6322026880    0.7675426530
H        0.8855428351    0.6133882769    0.9462329699
H        0.1487672668    1.2461389573   -0.5437304932
H       -0.5040780386   -0.7733888534   -3.7757905525
H       -0.1780698792    0.5811540485   -2.7246957493
H        0.7413279670   -3.9488076033   -0.2740805953
H       -3.5687811010    1.0020248793   -1.9119179831
25   

C       -0.7626157920   -4.6164183715   -4.8628562394
C       -0.8366046762   -3.4504435290   -3.9946840426
C        0.0233662847   -5.6052602152   -4.3353905479
C       -0.2355531311   -1.2991626809   -1.6849249076
C        0.0450753445   -2.6406706168   -1.7512960624
C       -0.1159560001   -3.5971241929   -2.8306256015
C        0.1908231137   -0.8813967213   -0.3602498745
C       -2.2607134787   -0.1996410293   -2.7255681625
C        0.1350227414    0.4933876080    0.2392332863
C       -0.7411158376   -0.3492645865   -2.7529002109
N        0.6548263137   -1.9074682457    0.3001658559
N        0.5616383153   -2.9819931210   -0.5301132305
O       -2.9149163439   -0.7402656836   -3.6021361684
O       -2.8040053982    0.5887823975   -1.7664633549
S        0.6943266646   -5.1524908094   -2.7749291295
H       -1.2772410550   -4.6910866108   -5.8148817459
H       -1.4258703512   -2.5827158730   -4.2522969305
H        0.2120564622   -6.5589930177   -4.8146933940
H       -0.5967735822    1.1189731373   -0.2758939678
H       -0.1360054853    0.4271048475    1.2965673931
H        1.1190838395    0.9637323887    0.1639198655
H       -0.4100862561   -0.6743336066   -3.7418710101
H       -0.2989361081    0.6384338505   -2.5993544068
H        0.8436901945   -3.9297395200   -0.2883871750
H       -3.7653480036    0.5671821050   -1.9023685921
25   

C       -0.7175674909   -4.6450466750   -5.0081286759
C       -0.6518658107   -3.4473161768   -4.1835017211
C       -0.1961875605   -5.7400385453   -4.3740526063
C       -0.1110019628   -1.3735352281   -1.7838395331
C        0.1230669007   -2.7236446444   -1.8674474981
C       -0.0799948880   -3.6698881101   -2.9498637425
C        0.3475973444   -0.9816206357   -0.4626677144
C       -2.1626051839   -0.3677673822   -2.8550350225
C        0.2948632382    0.3819985145    0.1618821806
C       -0.6370944797   -0.3964541208   -2.8162990639
N        0.8119771891   -2.0229589320    0.1724338408
N        0.6795215568   -3.0844241560   -0.6690756187
O       -2.7256002628   -0.7694674862   -3.8604551456
O       -2.8153990352    0.1598639370   -1.7905322527
S        0.3894535653   -5.3516370482   -2.7632071763
H       -1.1386456366   -4.6644481433   -6.0076790627
H       -1.0404930971   -2.5010307572   -4.5292782528
H       -0.1491078985   -6.7332706570   -4.8055904639
H       -0.5191379195    0.9737025226   -0.2637037002
H        0.1395920776    0.2921331972    1.2407731432
H        1.2418055963    0.9003178309   -0.0109145943
H       -0.2324488685   -0.6285478247   -3.8035906081
H       -0.2864881163    0.6114157640   -2.5816620033
H        0.9578960087   -4.0383425803   -0.4483385961
H       -3.7643547903    0.0888489887   -1.9837390392
25   

C       -0.8745272618   -4.5193377629   -4.8980698571
C       -0.5687743608   -3.3092383547   -4.1492312387
C       -0.7366813408   -5.6484152553   -4.1364452973
C       -0.0087904312   -1.2370965703   -1.7630713931
C        0.1362986170   -2.5998858606   -1.8109688338
C       -0.1963372879   -3.5602435353   -2.8467708235
C        0.5102216764   -0.8389379785   -0.4670861250
C       -2.1000809516   -0.5096857085   -2.9940836272
C        0.5207281573    0.5370168535    0.1313085305
C       -0.6022143911   -0.2890289182   -2.7870898761
N        0.9399876506   -1.8886584055    0.1798737980
N        0.7181172877   -2.9630919081   -0.6264854747
O       -2.5173387658   -0.5502114899   -4.1404626985
O       -2.8931300558   -0.6432305191   -1.9020914421
S       -0.2327103272   -5.2787351269   -2.4934267885
H       -1.1784619322   -4.5216768323   -5.9394480865
H       -0.6301182518   -2.3292124110   -4.6008788630
H       -0.9155531281   -6.6553085607   -4.4958218451
H       -0.3695916015    1.0935741061   -0.1721262584
H        0.5378743562    0.4705460559    1.2231333193
H        1.4114215754    1.0762519568   -0.2015342394
H       -0.0712085926   -0.3903509422   -3.7362883559
H       -0.4611732070    0.7450893394   -2.4662607198
H        0.9491634342   -3.9256126596   -0.3893820056
H       -3.7923236617   -0.8092301383   -2.2278494329
25   

C       -0.9172619170   -4.3989007623   -4.8984375908
C       -0.4457319882   -3.2377127830   -4.1584660723
C       -1.0676254441   -5.4979601562   -4.0946914591
C        0.0459547198   -1.1971667038   -1.7480286471
C        0.1613939949   -2.5610809937   -1.7944851607
C       -0.2312951121   -3.5034631077   -2.8252391934
C        0.6163623647   -0.8092303251   -0.4706406271
C       -2.0740002762   -0.6659302651   -3.0545236394
C        0.7277078708    0.5724655229    0.1034271843
C       -0.6327581730   -0.2653314833   -2.7355221866
N        1.0644296546   -1.8656928856    0.1543100445
N        0.8019533340   -2.9364345373   -0.6457055590
O       -2.4405175602   -0.5816566622   -4.2158607294
O       -2.8716147907   -1.0990535116   -2.0465127645
S       -0.6409137237   -5.1594570859   -2.4221238179
H       -1.1274954718   -4.3899255752   -5.9626508692
H       -0.2784187927   -2.2760602255   -4.6265396769
H       -1.4090679671   -6.4669025541   -4.4404124619
H       -0.1753138343    0.8017536691    0.6760544837
H        1.5890611047    0.6304489606    0.7750376881
H        0.8450586096    1.3146571618   -0.6894705362
H       -0.0480274398   -0.2224711732   -3.6576559109
H       -0.6645770547    0.7477840108   -2.3299058712
H        1.0373841972   -3.9017247842   -0.4247886482
H       -3.7187140169   -1.3495906231   -2.4484554052
25   

C       -0.8770848104   -4.3578267623   -4.9288597543
C       -0.3091373513   -3.2382306266   -4.1925290305
C       -1.2419412100   -5.3878979535   -4.1015340424
C        0.0284769506   -1.1657375268   -1.7874769533
C        0.1718113997   -2.5252711840   -1.8187964623
C       -0.2252845715   -3.4783871825   -2.8413467857
C        0.6406625692   -0.7491567210   -0.5392963823
C       -2.1081656668   -0.7891930272   -3.1320684442
C        0.7321936875    0.6410095062    0.0169384470
C       -0.7139966714   -0.2753519813   -2.7678626912
N        1.1506833881   -1.7860900215    0.0724599620
N        0.8860729557   -2.8729405894   -0.7059712785
O       -2.4507095242   -0.7124887981   -4.3012826200
O       -2.8923886465   -1.3076229404   -2.1541803346
S       -0.9040541626   -5.0346939348   -2.4109173784
H       -1.0022489821   -4.3688986564   -6.0063532749
H        0.0076678914   -2.3159818115   -4.6648169156
H       -1.6877132192   -6.3160236717   -4.4403454575
H       -0.1287361479    0.8305396367    0.6640979943
H        1.6434080676    0.7459545095    0.6126622844
H        0.7441795689    1.3815086709   -0.7860417399
H       -0.1181426037   -0.1639632450   -3.6772158153
H       -0.8412663881    0.7209717582   -2.3394447226
H        1.1659214798   -3.8280755020   -0.4927606417
H       -3.7006671154   -1.6270278151   -2.5860372576
25   

C       -0.8393395455   -4.3221729013   -4.9254666321
C       -0.1853919496   -3.2671408654   -4.1653437729
C       -1.4172092195   -5.2622355479   -4.1114967868
C        0.0016856255   -1.1709317638   -1.7531988671
C        0.1652545316   -2.5261101571   -1.7853742145
C       -0.2430742693   -3.4791156316   -2.8092347801
C        0.6623611454   -0.7405425043   -0.5352989273
C       -2.1503622535   -0.8853023248   -3.1012166790
C        0.7489725272    0.6523162046    0.0144230044
C       -0.7878237070   -0.3048072310   -2.7182233914
N        1.2276509623   -1.7657696968    0.0484410650
N        0.9510404605   -2.8592106317   -0.7174584571
O       -2.4784799056   -0.8304328461   -4.2758066004
O       -2.9267025396   -1.4301348757   -2.1314809545
S       -1.1802111809   -4.9024618420   -2.4046294485
H       -0.8731632459   -4.3521794793   -6.0092849701
H        0.2817742641   -2.4003740387   -4.6186841439
H       -1.9596921319   -6.1299198620   -4.4688700306
H       -0.0696244866    0.8154501427    0.7209408309
H        1.6960796061    0.7863187277    0.5447004494
H        0.6805666283    1.3917346439   -0.7867318464
H       -0.1965588161   -0.1475853381   -3.6239784902
H       -0.9686234287    0.6748769314   -2.2706704740
H        1.2676984209   -3.8070181987   -0.5238041133
H       -3.7107795853   -1.7908676548   -2.5751927499
25   

C        0.2568952646   -4.7400971439   -4.6434159795
C        0.7179679682   -3.7914981451   -3.6395996252
C       -1.0028321276   -5.2089774054   -4.3684336268
C        0.0279913527   -1.2884852964   -1.6229869940
C       -0.0743647676   -2.6433029655   -1.5445381946
C       -0.1865183346   -3.6273783162   -2.6204938810
C        0.1888482992   -0.8377358782   -0.2541109966
C       -1.5314691768   -0.0223894124   -3.0922105743
C        0.3139303705    0.5749453856    0.2337325541
C       -0.0794964123   -0.4327401216   -2.8645663061
N        0.2104244388   -1.8706402377    0.5493778148
N        0.0607877156   -2.9818403793   -0.2278357444
O       -2.2003022036   -0.6609469670   -3.8881789068
O       -1.9919211104    1.0690023654   -2.4312387730
S       -1.6624047406   -4.5246226429   -2.8858655048
H        0.8380747803   -5.0342505229   -5.5106776940
H        1.6637185609   -3.2639235175   -3.6895897221
H       -1.5409844823   -5.9179318454   -4.9869415236
H       -0.6569013563    0.9187525675    0.6010650218
H        1.0320157767    0.6229673034    1.0569887242
H        0.6410511356    1.2395052310   -0.5687427492
H        0.2830560144   -0.9783371175   -3.7393016447
H        0.5326460058    0.4660876709   -2.7605756218
H        0.0444483785   -3.9407115365    0.1136605967
H       -2.9260992486    1.1658517015   -2.6789444067
25   

C        0.4223382601   -5.0551635419   -4.4154225587
C        0.8774168165   -4.0977927940   -3.4165341368
C       -0.9376558962   -5.2384018026   -4.3729695876
C       -0.0978554672   -1.2652861014   -1.6425510779
C       -0.0346463348   -2.6213253610   -1.5858038933
C       -0.1577080707   -3.6046496031   -2.6641894282
C        0.0868616621   -0.8198660371   -0.2751443593
C       -1.7924138348   -0.0317824134   -2.9967796761
C        0.1285745035    0.5938925816    0.2230461179
C       -0.3215022461   -0.4151296953   -2.8713528694
N        0.2400576493   -1.8573097916    0.5094186533
N        0.1620425807   -2.9684091474   -0.2791674586
O       -2.5129132962   -0.7084933873   -3.7119535997
O       -2.2142970149    1.0801811964   -2.3448221839
S       -1.7084757157   -4.2621263553   -3.1254285048
H        1.0806747777   -5.5602404594   -5.1140398113
H        1.9112498747   -3.7998369732   -3.2824857124
H       -1.4871479943   -5.9021575155   -5.0305083693
H       -0.8480022825    0.8643865994    0.6332438666
H        0.8760353015    0.6878365965    1.0157793772
H        0.3743154376    1.2852019976   -0.5861538605
H       -0.0111275631   -0.9583208781   -3.7684147275
H        0.2811604672    0.4945831329   -2.8135457033
H        0.2259616001   -3.9300636578    0.0485724126
H       -3.1650004560    1.1598982291   -2.5267324911
25   

C        0.4241354887   -5.3241142020   -4.1524680084
C        0.9025246887   -4.3690672034   -3.1627295264
C       -0.9202638552   -5.1887907183   -4.3903539200
C       -0.1626813296   -1.2113793383   -1.6313930373
C        0.0518342948   -2.5536687109   -1.6459483201
C       -0.0855882678   -3.5146572122   -2.7404103529
C        0.0407341788   -0.8097290284   -0.2532560774
C       -1.9543674812    0.1157407701   -2.7795114743
C        0.0175931735    0.5843670961    0.2984814424
C       -0.4942506309   -0.3232370313   -2.8086211899
N        0.3054300575   -1.8628329252    0.4785138016
N        0.2913629935   -2.9412066502   -0.3573677540
O       -2.7909635503   -0.6047323717   -3.2981673853
O       -2.2429799875    1.3174801272   -2.2217900833
S       -1.6426438955   -3.8998472989   -3.4323913240
H        1.0561431013   -6.0564744437   -4.6432657895
H        1.9233103065   -4.3324840790   -2.7991226895
H       -1.4838567382   -5.7948146227   -5.0903843556
H       -0.9588101024    0.7847277788    0.7468986991
H        0.7842515764    0.6917533730    1.0711395192
H        0.2014027573    1.3167354036   -0.4911810110
H       -0.2956591433   -0.8493397810   -3.7465817235
H        0.1457805920    0.5628955108   -2.7931199694
H        0.4132356145   -3.9100674861   -0.0702605000
H       -3.2055575846    1.4264815057   -2.2917154561
25   

C        0.3887567047   -5.4665252885   -4.0682709287
C        0.8471261244   -4.5284047898   -3.0534252693
C       -0.8792299844   -5.1757747359   -4.5021619604
C       -0.2485740987   -1.2236683182   -1.7067161704
C        0.0481074229   -2.5516228068   -1.7314263656
C       -0.0657976036   -3.5310813951   -2.8070151948
C       -0.0118272468   -0.8077753853   -0.3378413393
C       -2.1326275548    0.0584390871   -2.7657060895
C       -0.0864555982    0.5846873225    0.2137770305
C       -0.6653567812   -0.3459238432   -2.8654828507
N        0.3457205960   -1.8409944509    0.3821155529
N        0.3619426056   -2.9196159270   -0.4526763577
O       -2.9789263427   -0.6984385187   -3.2113865363
O       -2.4199470089    1.2704374976   -2.2301887586
S       -1.5489598600   -3.7569852149   -3.7037401660
H        0.9796699439   -6.2982983062   -4.4366098017
H        1.8046634685   -4.6056393108   -2.5510570712
H       -1.4164238384   -5.7426945575   -5.2538043167
H       -1.0618083118    0.7423741508    0.6809646903
H        0.6900369321    0.7277695565    0.9707203730
H        0.0494719042    1.3231851160   -0.5799010022
H       -0.4978750656   -0.8642108443   -3.8134979769
H       -0.0479552665    0.5562103427   -2.8810594309
H        0.5449237160   -3.8791765074   -0.1675963972
H       -3.3873516184    1.3546793404   -2.2500059349
25   

C        0.3143677415   -5.5021900648   -4.0245628389
C        0.7470196594   -4.6178284062   -2.9518804461
C       -0.8369977639   -5.0601085216   -4.6230637763
C       -0.2596601814   -1.2040225663   -1.7080943979
C        0.0471562907   -2.5318163785   -1.7475490235
C       -0.0642518194   -3.5151654338   -2.8149111295
C        0.0269733647   -0.7889738474   -0.3478281874
C       -2.1868010907    0.0620966500   -2.7113531089
C       -0.0444603499    0.5995252234    0.2150595002
C       -0.7124621600   -0.3077502670   -2.8400169254
N        0.4295649269   -1.8178191672    0.3533762979
N        0.4271625913   -2.8934135373   -0.4843544963
O       -3.0228074053   -0.6952752961   -3.1751303302
O       -2.4923333430    1.2487034389   -2.1309612985
S       -1.4246197594   -3.5612485323   -3.9121438484
H        0.8404410770   -6.4049923710   -4.3159321269
H        1.6202026619   -4.8073289143   -2.3385215717
H       -1.3356285107   -5.5635656817   -5.4433166541
H       -1.0047888564    0.7427350953    0.7167566713
H        0.7560729747    0.7472395055    0.9456197470
H        0.0551975873    1.3453793331   -0.5769648908
H       -0.5415562753   -0.7926461591   -3.8043302178
H       -0.1168397625    0.6089145941   -2.8402128238
H        0.6377490604   -3.8493522992   -0.2073779464
H       -3.4613860962    1.3138631068   -2.1379264533
25   

C        0.2413999140   -5.6003108055   -3.9396338149
C        0.6355011178   -4.7584292351   -2.8190573997
C       -0.7644586755   -5.0353902190   -4.6791146271
C       -0.2412380073   -1.2416074158   -1.6846951779
C        0.0586208840   -2.5741769656   -1.7235764376
C       -0.0622613307   -3.5717850708   -2.7735952807
C        0.1070907452   -0.8132610212   -0.3417856894
C       -2.2240458826   -0.0506793679   -2.6723659183
C        0.0532123722    0.5766277172    0.2210834660
C       -0.7305948046   -0.3361623818   -2.7956106511
N        0.5490615677   -1.8326669636    0.3480690959
N        0.5128497887   -2.9150700743   -0.4784448804
O       -3.0055784442   -0.7333558696   -3.3133795228
O       -2.6047347209    0.9970982131   -1.9005306559
S       -1.2585428709   -3.4707282767   -4.0443674109
H        0.6914037347   -6.5614389806   -4.1642017719
H        1.4073180424   -5.0403262714   -2.1130262222
H       -1.2104741350   -5.4876999518   -5.5574046519
H       -0.8875775035    0.7171027893    0.7593248949
H        0.8806463111    0.7283013358    0.9201713782
H        0.1192415654    1.3231288024   -0.5734602164
H       -0.5168091306   -0.7738083373   -3.7733084685
H       -0.1900476007    0.6129024118   -2.7604217610
H        0.7521839032   -3.8640027113   -0.2021386746
H       -3.5745801535    1.0275984547   -1.9410853452
25   

C        0.1729569499   -5.5921497126   -3.9013215482
C        0.5039822109   -4.7867848808   -2.7344138371
C       -0.6328711600   -4.9183297425   -4.7806592323
C       -0.2085154619   -1.1726258352   -1.7192427655
C        0.0805820470   -2.5119024531   -1.7486288515
C       -0.0484109165   -3.5247645405   -2.7823181867
C        0.2100456128   -0.7215825352   -0.4029983517
C       -2.2481977968   -0.1140791774   -2.7603901274
C        0.1546549090    0.6683596883    0.1602429343
C       -0.7293185955   -0.2600129267   -2.8119416606
N        0.6690333622   -1.7313124941    0.2874895171
N        0.5803054097   -2.8282187828   -0.5133892106
O       -2.9225965323   -0.7199470195   -3.5763616184
O       -2.7703282744    0.7439923774   -1.8495644428
S       -1.0115589043   -3.2936300283   -4.2235161091
H        0.5245070407   -6.6062996419   -4.0581802594
H        1.1314102297   -5.1534054080   -1.9315382998
H       -0.9998568157   -5.3263687095   -5.7153878680
H       -0.5617796118    1.2867187101   -0.3841909659
H       -0.1360520916    0.6311379665    1.2137390537
H        1.1438448734    1.1287982115    0.0913448570
H       -0.4218477650   -0.6207037357   -3.7958424315
H       -0.2849142371    0.7322955435   -2.7007842957
H        0.8352767978   -3.7704252223   -0.2295633620
H       -3.7342688870    0.7092144888   -1.9612073245
25   

C       -0.0682272489   -5.5867315829   -3.8243825302
C        0.2679481788   -4.7893535331   -2.6532924488
C       -0.6429140836   -4.8332704283   -4.8138792947
C       -0.1117141313   -1.0695529752   -1.8199553892
C        0.1480848970   -2.4163602019   -1.8128005747
C       -0.0644025025   -3.4598964839   -2.8006841530
C        0.3551179458   -0.5808128827   -0.5353943721
C       -2.2294536720   -0.2039880760   -2.9008641328
C        0.2707442207    0.8198480879   -0.0038493063
C       -0.7022081694   -0.1863925203   -2.9029892694
N        0.8461205859   -1.5687869950    0.1637720634
N        0.7210570988   -2.6890629221   -0.5991937953
O       -2.8053740599   -0.3448250338   -3.9673155832
O       -2.8733477075   -0.0379068114   -1.7181048100
S       -0.7934678379   -3.1411661547   -4.3581899463
H        0.1147168695   -6.6529198395   -3.9051803278
H        0.7308432455   -5.2150015439   -1.7718817482
H       -0.9714666774   -5.2224732575   -5.7707425809
H       -0.5781829653    1.3494771410   -0.4431552792
H        0.1501712408    0.7997532618    1.0830421691
H        1.1913512565    1.3587516662   -0.2427233074
H       -0.3244490144   -0.4824172375   -3.8838559225
H       -0.3782053109    0.8459771724   -2.7533862942
H        1.0150908606   -3.6169740889   -0.3070291542
H       -3.8232411501   -0.0946930432   -1.9094096385
