19   
Generated by ForceBalance from scan.xyz: Frame 1 of 24
C       -0.1704979824   -2.0284160558    5.6796442630
C        1.5286460567   -0.6834427955    1.2834347114
C        1.7830926837   -1.3000213676    2.5070639708
C       -0.7732460744   -0.4958779922    1.9635907356
C        0.2239889081   -0.2732306166    1.0111041984
C        0.7265489242   -1.4864929335    3.4119885185
C        1.5994877543   -3.5637317536    4.7305622707
C        2.2983751891   -2.3903285777    5.3382422606
C        0.9103584122   -2.1856654623    4.7270275800
N       -0.9844013449   -1.9432432343    6.5067763414
N       -0.5239787038   -1.0926700966    3.1325143700
Br      -0.2030512740    0.5844009539   -0.6425681638
H        2.3252063680   -0.5229957787    0.5637597700
H        2.7925811778   -1.6244632259    2.7383995015
H       -1.7996589719   -0.1869887517    1.7786580217
H        1.9250247445   -3.9209157298    3.7587650594
H        1.1802883296   -4.3184594800    5.3870834245
H        2.3551967019   -2.3299262882    6.4194773608
H        3.1367524428   -1.9414691579    4.8170356135
19   
Generated by ForceBalance from scan.xyz: Frame 2 of 24
C        0.5922286142   -3.5735014406    4.8190463115
C        0.6523154930    0.3892104561    1.9214416764
C        0.7882439931   -0.1303653628    3.2065172810
C        0.2857218820   -1.8620414206    1.1520287273
C        0.3951444036   -0.4978106419    0.8757115695
C        0.6630037360   -1.5155743476    3.4019353620
C        1.8611720145   -1.5914079782    5.7331136512
C        0.4116005065   -1.3598707254    6.0154423339
C        0.8095706729   -2.1420013377    4.7567129333
N        0.4339336597   -4.7168040127    4.9657612591
N        0.4183733635   -2.3554245285    2.3872004272
Br       0.1942279037    0.1390394152   -0.9151470884
H        0.7430643478    1.4552245101    1.7382818960
H        0.9892319266    0.5431203959    4.0341751814
H        0.0864042322   -2.5773072275    0.3572383438
H        2.4652746674   -0.7703771202    5.3609001487
H        2.3946375337   -2.3214859309    6.3318627897
H       -0.0570049838   -1.9318714058    6.8087110690
H       -0.0111743555   -0.3741779398    5.8515068395
19   
Generated by ForceBalance from scan.xyz: Frame 3 of 24
C        0.7574635609   -3.5917937983    4.7947893722
C        0.7734841618    0.3713513197    1.9036660918
C        0.9573344441   -0.1534009403    3.1808641771
C        0.1402483359   -1.8387205743    1.1888837146
C        0.3580868738   -0.4922012651    0.8899447586
C        0.7194554017   -1.5198882938    3.4002532935
C        1.7898474958   -1.5312196561    5.8116202554
C        0.3087384674   -1.4093244962    5.9833423406
C        0.8675669216   -2.1469748183    4.7548192417
N        0.6920020059   -4.7466388320    4.9203801403
N        0.3149741833   -2.3356200634    2.4171963492
Br       0.0881211153    0.1521492462   -0.8889923723
H        0.9505039597    1.4231060804    1.7020412250
H        1.2798897758    0.5021806173    3.9838706633
H       -0.1847913019   -2.5351944910    0.4192371974
H        2.3637932352   -0.6625153956    5.5074316571
H        2.3250205581   -2.2304388902    6.4445422845
H       -0.1789390911   -2.0178658169    6.7370095275
H       -0.1676180107   -0.4560227725    5.7777633733
19   
Generated by ForceBalance from scan.xyz: Frame 4 of 24
C        0.9263042827   -3.5896363119    4.7810338024
C        0.8961260010    0.3392028909    1.8687376263
C        1.1204444118   -0.1875363547    3.1400507977
C       -0.0154998589   -1.8007869391    1.2480007231
C        0.3179575033   -0.4873828757    0.9065546139
C        0.7560243953   -1.5160758963    3.4043085938
C        1.7015525883   -1.4658194063    5.8813188354
C        0.2059900267   -1.4735474172    5.9566996863
C        0.9113115553   -2.1399270167    4.7611855215
N        0.9666981729   -4.7483766334    4.8789524446
N        0.1951956785   -2.2971332636    2.4696279102
Br      -0.0156804035    0.1581966651   -0.8610698134
H        1.1698191871    1.3627943224    1.6330352319
H        1.5759035684    0.4375382706    3.9009563851
H       -0.4660243501   -2.4688166025    0.5173105180
H        2.2153367554   -0.5412800188    5.6431831157
H        2.2515935716   -2.1293094877    6.5394165767
H       -0.2792265413   -2.1312958012    6.6696493225
H       -0.3307744772   -0.5590955457    5.7250077867
19   
Generated by ForceBalance from scan.xyz: Frame 5 of 24
C        1.1066656905   -3.5651033698    4.7518764302
C        1.0526360097    0.2907323733    1.8087426602
C        1.2918002801   -0.2380027534    3.0783930516
C       -0.1598219582   -1.7277660959    1.3035574553
C        0.3114229982   -0.4711655957    0.9087742521
C        0.7742581307   -1.4987484611    3.4012595924
C        1.5943423864   -1.3942687068    5.9249958667
C        0.1056116745   -1.5647443156    5.9247143022
C        0.9371211897   -2.1252416194    4.7582323540
N        1.2699731259   -4.7157627035    4.8123606787
N        0.0640306551   -2.2229039600    2.5219518419
Br      -0.0552798985    0.1786124090   -0.8505986865
H        1.4425617914    1.2639205369    1.5275322026
H        1.8847066271    0.3280585291    3.7883235108
H       -0.7331824754   -2.3472881093    0.6174704629
H        2.0045925285   -0.4086823176    5.7373554758
H        2.1825861179   -2.0048168625    6.6010566113
H       -0.3415108382   -2.2859973527    6.6002288408
H       -0.5120627861   -0.7057477171    5.6830292601
19   
Generated by ForceBalance from scan.xyz: Frame 6 of 24
C        1.2875999324   -3.5157940537    4.7537031280
C        1.1895778466    0.2018926515    1.7577867093
C        1.4282190573   -0.3252979186    3.0292978828
C       -0.3318570040   -1.6316122273    1.3938839422
C        0.2899288339   -0.4655894671    0.9312127063
C        0.7519304809   -1.4846643676    3.4237347450
C        1.4724833957   -1.3099271800    5.9643071190
C        0.0166821197   -1.6691862550    5.9239694115
C        0.9379813299   -2.1097536352    4.7806828417
N        1.5914591497   -4.6394003457    4.7697970834
N       -0.1056900721   -2.1244168759    2.6122642261
Br      -0.0917619006    0.1864623476   -0.8240141622
H        1.6991203797    1.0987858798    1.4198812334
H        2.1441007786    0.1555320314    3.6872048559
H       -1.0284239023   -2.1775510093    0.7613911761
H        1.7485342135   -0.2767192953    5.7849453054
H        2.1173671323   -1.8385105440    6.6576705597
H       -0.3514094856   -2.4457863432    6.5856500939
H       -0.6991939500   -0.8929097690    5.6738621629
19   
Generated by ForceBalance from scan.xyz: Frame 7 of 24
C        1.4832115439   -3.4427374911    4.7489809218
C        1.3209524293    0.1102715225    1.7094564183
C        1.5526880337   -0.4236682927    2.9791121649
C       -0.4644333106   -1.4937871622    1.4752075407
C        0.2900613398   -0.4376572878    0.9501861624
C        0.7435749243   -1.4691264397    3.4358839239
C        1.3530380131   -1.2394183348    5.9878669469
C       -0.0429403799   -1.7875325899    5.9066327369
C        0.9516470243   -2.0960462735    4.7904339492
N        1.9267717271   -4.5192685199    4.7332015146
N       -0.2408134188   -1.9959289643    2.6911776616
Br      -0.0972094021    0.2332155166   -0.7967934773
H        1.9297588042    0.9212737727    1.3223785614
H        2.3587334034   -0.0391917958    3.5960268438
H       -1.2681929215   -1.9422102332    0.8954667576
H        1.4952899402   -0.1796685458    5.8028147713
H        2.0429087163   -1.6776842026    6.7008350884
H       -0.3210085527   -2.6077833511    6.5594643310
H       -0.8498208915   -1.1126378921    5.6404291992
19   
Generated by ForceBalance from scan.xyz: Frame 8 of 24
C        1.6588562278   -3.3453382626    4.7699153227
C        1.4187040527   -0.0096115900    1.6511031391
C        1.6475283950   -0.5436680888    2.9198203163
C       -0.5899157667   -1.3444998322    1.5680645308
C        0.2749198977   -0.4216674851    0.9695849287
C        0.7294306581   -1.4565288256    3.4511214275
C        1.2242316269   -1.1781139413    6.0120776360
C       -0.0913721406   -1.8934901980    5.8916885614
C        0.9586980856   -2.0783412070    4.8058957021
N        2.2347244566   -4.3575154996    4.7471217643
N       -0.3640346698   -1.8515649066    2.7835015323
Br      -0.1198435354    0.2623892457   -0.7705353441
H        2.1087034782    0.7008711024    1.2069109123
H        2.5285142875   -0.2604103936    3.4882076545
H       -1.4854338810   -1.6812769016    1.0506869979
H        1.2467788905   -0.1106871593    5.8153595365
H        1.9419302774   -1.5286059345    6.7461103612
H       -0.2839088052   -2.7390267191    6.5430073708
H       -0.9681136949   -1.3261534825    5.5977430942
19   
Generated by ForceBalance from scan.xyz: Frame 9 of 24
C        1.8363847394   -3.2511643626    4.8024075737
C        1.4944953809   -0.1283701750    1.6195340533
C        1.7312478478   -0.6790813768    2.8779881177
C       -0.6825826606   -1.1671142512    1.6909521834
C        0.2595450146   -0.3806860391    1.0218474705
C        0.7332092993   -1.4535642173    3.4832910710
C        1.1031740483   -1.1708181092    6.0559292428
C       -0.1127976548   -2.0338180005    5.8850410717
C        0.9806425901   -2.0844203500    4.8312067883
N        2.5371691996   -4.1814877340    4.7822805382
N       -0.4460666247   -1.6963640237    2.8967038647
Br      -0.1524281225    0.3401597488   -0.6993663664
H        2.2442469279    0.4768735634    1.1197974029
H        2.6773862083   -0.5148760339    3.3858477038
H       -1.6501942194   -1.3771677434    1.2409736177
H        1.0123288463   -0.1064107212    5.8620864424
H        1.8352506602   -1.4456389397    6.8080441419
H       -0.2235017054   -2.9021530754    6.5253502318
H       -1.0405984077   -1.5746162395    5.5616456873
19   
Generated by ForceBalance from scan.xyz: Frame 10 of 24
C        1.9951115287   -3.1171146049    4.8534083035
C        1.5500265115   -0.2745269256    1.5409646411
C        1.7950719492   -0.8283073170    2.7952154262
C       -0.7361808663   -1.0059173907    1.7788484619
C        0.2544066636   -0.3668593055    1.0300093060
C        0.7449918433   -1.4506846424    3.4849414524
C        0.9605158827   -1.1425627933    6.0634425349
C       -0.1331433251   -2.1434284539    5.8487221196
C        0.9977858876   -2.0699045645    4.8361390143
N        2.8085211902   -3.9508703177    4.8708327104
N       -0.4909936938   -1.5442690657    2.9798936271
Br      -0.1705107515    0.3701615076   -0.6813406769
H        2.3392435129    0.2139991259    0.9782198114
H        2.7874023130   -0.7845634983    3.2351029675
H       -1.7511423100   -1.0925941597    1.3979433859
H        0.7545839014   -0.0973773418    5.8540910912
H        1.6929603043   -1.3262323087    6.8425854879
H       -0.1632480829   -3.0188604327    6.4883238071
H       -1.0933917088   -1.7997628070    5.4809875236
19   
Generated by ForceBalance from scan.xyz: Frame 11 of 24
C        2.1277433196   -2.9747059621    4.9216797567
C        1.5797897120   -0.4001637003    1.4816857785
C        1.8376094508   -0.9691321966    2.7263182688
C       -0.7598113393   -0.8200781278    1.8847210842
C        0.2514319638   -0.3241933039    1.0596737727
C        0.7646470699   -1.4403102914    3.4973004077
C        0.8167184148   -1.1376845222    6.0763312175
C       -0.1416406483   -2.2546789751    5.8156465356
C        1.0166866506   -2.0533860187    4.8491200860
N        3.0317905076   -3.7064425565    4.9864272085
N       -0.5042351205   -1.3760343892    3.0752078135
Br      -0.1897158178    0.4446893728   -0.6335601901
H        2.3861089150   -0.0267892946    0.8582394890
H        2.8561296839   -1.0530187369    3.0940501925
H       -1.8012481751   -0.7769670672    1.5742919440
H        0.5026152092   -0.1236618756    5.8498542091
H        1.5340561190   -1.2369128140    6.8843164708
H       -0.0949411273   -3.1315074943    6.4524228043
H       -1.1164696681   -2.0188106783    5.4048125314
19   
Generated by ForceBalance from scan.xyz: Frame 12 of 24
C        2.2438024192   -2.8438265197    4.9995468716
C        1.5998477111   -0.5276427360    1.4345728221
C        1.8710596973   -1.1077618383    2.6719144969
C       -0.7400607709   -0.6433727722    2.0006650244
C        0.2664670784   -0.2910214891    1.0990401652
C        0.8030162178   -1.4292755116    3.5223564835
C        0.6930806009   -1.1667383821    6.1005269680
C       -0.1263376326   -2.3729007418    5.7835705988
C        1.0516675364   -2.0379098881    4.8740559011
N        3.2109337552   -3.4843491710    5.1048943281
N       -0.4743340747   -1.2091035836    3.1828778702
Br      -0.1909799899    0.5011725404   -0.5790961979
H        2.4022200580   -0.2679224791    0.7511714876
H        2.8945745834   -1.3131184666    2.9703099141
H       -1.7868182274   -0.4734520107    1.7590750595
H        0.2838896225   -0.1906866882    5.8606411647
H        1.3789351153   -1.1992744384    6.9405042995
H       -0.0144016791   -3.2512823902    6.4100802462
H       -1.0994210827   -2.2284673672    5.3289315924
19   
Generated by ForceBalance from scan.xyz: Frame 13 of 24
C        2.3312779862   -2.6790019338    5.0639142950
C        1.5822717797   -0.6528417014    1.3625652258
C        1.8692032068   -1.2228667418    2.6021818591
C       -0.7113625656   -0.4774194782    2.0780460638
C        0.2663900355   -0.2735204045    1.1009320736
C        0.8310240059   -1.3914621848    3.5291309916
C        0.5683195983   -1.1831950460    6.1049623497
C       -0.1077861581   -2.4575891176    5.7289866315
C        1.0786627126   -1.9827599713    4.8864698855
N        3.3443290744   -3.2349934702    5.2092909117
N       -0.4328831799   -1.0303014435    3.2619791000
Br      -0.2092779621    0.5139440738   -0.5744936280
H        2.3621910618   -0.5095057393    0.6212994342
H        2.8809413646   -1.5340516051    2.8421636921
H       -1.7453051173   -0.1927272212    1.8965498994
H        0.0726367242   -0.2512362107    5.8542429756
H        1.2107709304   -1.1630328943    6.9788622923
H        0.0614826785   -3.3357035263    6.3428856101
H       -1.0661730188   -2.3951023522    5.2265455163
19   
Generated by ForceBalance from scan.xyz: Frame 14 of 24
C        2.4084099155   -2.5153934973    5.1344478475
C        1.5539839088   -0.7783527119    1.3165338702
C        1.8525257545   -1.3305119589    2.5621919056
C       -0.6580049501   -0.3202159831    2.1523414615
C        0.2744598948   -0.2648963011    1.1125151654
C        0.8608302603   -1.3471581105    3.5523216339
C        0.4661642962   -1.2245567586    6.1266982526
C       -0.0667049887   -2.5438026767    5.6804986669
C        1.1105549721   -1.9211451891    4.9155999522
N        3.4553131549   -2.9936995640    5.3122211300
N       -0.3685593078   -0.8510330931    3.3428319215
Br      -0.2138646726    0.5084609693   -0.5658598248
H        2.2988504641   -0.7500121614    0.5274445645
H        2.8379423731   -1.7406225464    2.7583222694
H       -1.6630569565    0.0732137970    2.0176347994
H       -0.1072781693   -0.3381855958    5.8780894957
H        1.0620742836   -1.1762838303    7.0318097532
H        0.1546756007   -3.4255726085    6.2721813609
H       -1.0016585742   -2.5510265408    5.1312670651
19   
Generated by ForceBalance from scan.xyz: Frame 15 of 24
C        2.4663537863   -2.3477102973    5.1988363110
C        1.5101069967   -0.9087324101    1.2834049822
C        1.8115410699   -1.4391414241    2.5375713741
C       -0.5881126067   -0.1660018777    2.2029693174
C        0.2866056976   -0.2619875739    1.1171761988
C        0.8786630013   -1.3010777372    3.5744475773
C        0.3732435932   -1.2777393751    6.1427226953
C       -0.0124920063   -2.6266241743    5.6312697645
C        1.1315253782   -1.8570726338    4.9449465211
N        3.5407767962   -2.7481157045    5.4030004230
N       -0.2940817091   -0.6715651372    3.4036032221
Br      -0.2007658273    0.4922490339   -0.5702182906
H        2.2106677262   -0.9970853101    0.4589816974
H        2.7554455574   -1.9476124689    2.7058059290
H       -1.5478615849    0.3351715570    2.0993590273
H       -0.2731737883   -0.4417781426    5.9004866265
H        0.9241044569   -1.2108331034    7.0747247855
H        0.2659732345   -3.5066635067    6.2010207813
H       -0.9185706466   -2.7030526210    5.0396824335
19   
Generated by ForceBalance from scan.xyz: Frame 16 of 24
C        1.3163471607   -1.2707501588    5.8756725591
C        0.9905432272    0.3334274479    1.9163054157
C        1.2485110614   -0.2075398697    3.1746799818
C        0.0534086916   -1.7978577698    1.2961185708
C        0.3830139257   -0.4821445632    0.9619683148
C        0.8889190707   -1.5386434221    3.4295499610
C        0.6170183341   -3.5684425984    5.0702606777
C        2.0769371522   -3.4191950255    4.7786159557
C        1.1618265877   -2.1780534152    4.7609648441
N        1.4506294969   -0.5406377673    6.7731061671
N        0.2952486926   -2.3093784723    2.5070283308
Br      -0.0054628529    0.1837827752   -0.7869985168
H        1.2541643387    1.3609410123    1.6860847340
H        1.7162636083    0.3958623062    3.9463279047
H       -0.4247565875   -2.4518207972    0.5704004334
H       -0.0164788681   -3.9847610618    4.2956630958
H        0.3096484296   -3.7475941964    6.0948561803
H        2.7893434559   -3.4904646579    5.5935616910
H        2.4357344885   -3.7319203600    3.8034535808
19   
Generated by ForceBalance from scan.xyz: Frame 17 of 24
C        1.1287561473   -1.2816485909    5.8687562210
C        1.0970314411    0.2801659469    1.8575798764
C        1.3545074106   -0.2768298298    3.1080264027
C       -0.1336525944   -1.7229474631    1.3262274033
C        0.3395603553   -0.4637902336    0.9518789891
C        0.8456398693   -1.5496226118    3.4054070383
C        0.7003612245   -3.6259417330    5.0047708964
C        2.1532778984   -3.3252222604    4.7892329397
C        1.1152935616   -2.1873351375    4.7410623860
N        1.1530440222   -0.5527069770    6.7768857027
N        0.1080224674   -2.2483335925    2.5327654363
Br      -0.0580139021    0.2274452171   -0.7850960038
H        1.4735266682    1.2637920369    1.5949441877
H        1.9356712142    0.2694797253    3.8448988028
H       -0.7306439075   -2.3187545785    0.6395847750
H        0.1450718213   -4.0896870076    4.1978456481
H        0.3665070430   -3.8565834861    6.0105484732
H        2.8268045996   -3.3397766758    5.6395752822
H        2.5951276545   -3.5871246368    3.8331169045
19   
Generated by ForceBalance from scan.xyz: Frame 18 of 24
C        0.9399399410   -1.3169300650    5.8781166266
C        1.2213935131    0.1942977074    1.8136207673
C        1.4788095269   -0.3792366285    3.0561988602
C       -0.2856487709   -1.6408975321    1.3901860110
C        0.3220010982   -0.4568796635    0.9677034028
C        0.8298009879   -1.5725494382    3.4047410055
C        0.7952802956   -3.6791611379    4.9656771465
C        2.2259273176   -3.2369239343    4.8511511361
C        1.0895092800   -2.2066970307    4.7464436610
N        0.8353434661   -0.5990142720    6.7894532014
N       -0.0408243863   -2.1813472034    2.5903695648
Br      -0.0845174358    0.2605344274   -0.7563345830
H        1.7043987932    1.1180490815    1.5109647556
H        2.1680334382    0.0926476318    3.7506365779
H       -0.9927012269   -2.1624119327    0.7491730507
H        0.3367298933   -4.1799734940    4.1206795922
H        0.4208711636   -3.9638331010    5.9429100057
H        2.8387825633   -3.2048854579    5.7458009767
H        2.7562672052   -3.4431039409    3.9266664073
19   
Generated by ForceBalance from scan.xyz: Frame 19 of 24
C        0.7350883116   -1.3490184481    5.8675893858
C        1.3140943431    0.1057278818    1.7409794975
C        1.5755921901   -0.4783487342    2.9784974094
C       -0.4366513223   -1.5298706728    1.4553806491
C        0.2868962792   -0.4383453766    0.9687420079
C        0.8053230061   -1.5731910812    3.3935433450
C        0.8896618023   -3.6975721371    4.9214860038
C        2.2756043694   -3.1150449302    4.9117946986
C        1.0566069168   -2.2007185953    4.7415966748
N        0.4918905483   -0.6594853969    6.7744284587
N       -0.1844578093   -2.0811112686    2.6487960027
Br      -0.1354524683    0.2972930885   -0.7437272531
H        1.8896316087    0.9552239857    1.3870050380
H        2.3629896376   -0.0908427255    3.6188175500
H       -1.2428054274   -1.9669407012    0.8706735028
H        0.5394188187   -4.2270239758    4.0423493309
H        0.4801394692   -4.0394101178    5.8657158558
H        2.8195622726   -3.0453928701    5.8478907719
H        2.8870803311   -3.2551560135    4.0256865315
19   
Generated by ForceBalance from scan.xyz: Frame 20 of 24
C        0.5521701746   -1.4137694243    5.8562770632
C        1.4090879435    0.0027176784    1.6657227809
C        1.6737010979   -0.5908668407    2.8995735651
C       -0.5605065486   -1.3862643490    1.5395311218
C        0.2683543246   -0.4099660057    0.9780005945
C        0.7953809292   -1.5643912434    3.3907702829
C        0.9986047361   -3.7083467365    4.8734031136
C        2.3206003426   -2.9971149517    4.9688715922
C        1.0385347232   -2.1963125247    4.7387769975
N        0.1737189294   -0.7792173659    6.7568040494
N       -0.3017107587   -1.9487814315    2.7247430518
Br      -0.1682061063    0.3456611575   -0.7220901052
H        2.0670496811    0.7610349977    1.2531352905
H        2.5470725408   -0.3022958009    3.4773748351
H       -1.4558157278   -1.7196439593    1.0197294554
H        0.7604644972   -4.2470578073    3.9625646743
H        0.5630948062   -4.1137557609    5.7800866985
H        2.7945765719   -2.9088817885    5.9406894044
H        2.9999720683   -3.0592861106    4.1242357780
19   
Generated by ForceBalance from scan.xyz: Frame 21 of 24
C        0.3843948449   -1.5080791058    5.8443614736
C        1.4584734876   -0.1150937908    1.5860851667
C        1.7357269712   -0.7104106979    2.8179284280
C       -0.6778293441   -1.2361461370    1.6408872872
C        0.2285369093   -0.3897780937    0.9919462077
C        0.7798698147   -1.5529671269    3.3956914332
C        1.1163577366   -3.7109457152    4.8331227001
C        2.3527778867   -2.8775761746    5.0333878995
C        1.0203115078   -2.1949134919    4.7385398945
N       -0.1097627241   -0.9510132290    6.7398224102
N       -0.4049550382   -1.8032872475    2.8188443646
Br      -0.2304905143    0.3799324434   -0.6957614751
H        2.1753066003    0.5443505260    1.1070891750
H        2.6760153435   -0.5171706195    3.3255044334
H       -1.6458103796   -1.4576145381    1.1968730278
H        0.9971194262   -4.2453922809    3.8964564333
H        0.6612762006   -4.1829442196    5.6969974585
H        2.7530390297   -2.7744270940    6.0361955922
H        3.0898947719   -2.8587230480    4.2367216576
19   
Generated by ForceBalance from scan.xyz: Frame 22 of 24
C        0.2105180249   -1.6116912956    5.8204129334
C        1.5326869370   -0.2377564532    1.5090898127
C        1.8008647493   -0.8331684110    2.7440262564
C       -0.7308331094   -1.0391929877    1.7313391467
C        0.2424333248   -0.3495472059    0.9978645921
C        0.7772838220   -1.5191953524    3.4056446335
C        1.2183407227   -3.6911696881    4.7938399070
C        2.3505418282   -2.7595121715    5.1244967217
C        0.9932278215   -2.1810566905    4.7417076803
N       -0.3941273201   -1.1564037035    6.7050858190
N       -0.4657781928   -1.6107744965    2.9071277467
Br      -0.2112174646    0.4343204723   -0.6848151155
H        2.3030370956    0.3034379607    0.9688152037
H        2.7878720316   -0.7483333156    3.1869202904
H       -1.7478268309   -1.1289582188    1.3559349661
H        1.2297759466   -4.1966283346    3.8336961786
H        0.7350847926   -4.2338515656    5.5989646041
H        2.6540381994   -2.6596380933    6.1608568238
H        3.1519125700   -2.6564590519    4.4004903289
19   
Generated by ForceBalance from scan.xyz: Frame 23 of 24
C        0.0564774896   -1.7466004949    5.7774823645
C        1.5493905571   -0.3801363882    1.4165842173
C        1.8221306954   -0.9712396387    2.6523734456
C       -0.7789731825   -0.8528404866    1.8166598519
C        0.2237013851   -0.3252148695    0.9946994945
C        0.7646939709   -1.4914515865    3.4070916574
C        1.3434489766   -3.6601256199    4.7456261566
C        2.3410937009   -2.6376566204    5.2050044404
C        0.9680210096   -2.1723942271    4.7336372230
N       -0.6379592438   -1.4180607851    6.6518679010
N       -0.5103519039   -1.4243541443    2.9912984022
Br      -0.2356742634    0.4701576828   -0.6810694948
H        2.3467464913    0.0348572753    0.8081172988
H        2.8425427416   -1.0039658230    3.0181901613
H       -1.8233243335   -0.8110623699    1.5151988966
H        1.4829348849   -4.1132690292    3.7694566785
H        0.8530768806   -4.2851298435    5.4840694451
H        2.5412142868   -2.5530211200    6.2674123649
H        3.1914300055   -2.4265453034    4.5664721244
19   
Generated by ForceBalance from scan.xyz: Frame 24 of 24
C       -0.0638080780   -1.8902624247    5.7408779478
C        1.5437450482   -0.5543287934    1.3394836840
C        1.8163749431   -1.1431612290    2.5746813559
C       -0.7937155933   -0.6794140281    1.9036849358
C        0.2124829650   -0.3200697451    1.0017279387
C        0.7508531771   -1.4816633255    3.4198208831
C        1.4828871214   -3.6150219486    4.7315158530
C        2.3306454450   -2.5134700183    5.2874765542
C        0.9469690097   -2.1711880475    4.7404403067
N       -0.8258723143   -1.6925078527    6.5977838579
N       -0.5265613151   -1.2507593070    3.0798100395
Br      -0.2430749678    0.4882216795   -0.6689999888
H        2.3475179044   -0.2781551272    0.6642948115
H        2.8467682676   -1.3197425402    2.8634124188
H       -1.8409861610   -0.5026141244    1.6687329143
H        1.7265860841   -4.0114403722    3.7510396414
H        1.0175729004   -4.3159831433    5.4160854515
H        2.4457824749   -2.4473728423    6.3637008138
H        3.1930568914   -2.1783904481    4.7227782464
