24   

C       -0.6407955343    1.1916363372   -0.0320408481
C        0.5635715259    0.6605188954    0.3739303750
C        1.5239331323    1.4391078584    1.2314323659
C       -1.5916875394    0.4423802721   -0.9153796369
C       -0.1040461531   -1.5145202015   -0.6584976375
C        3.6515985320    1.7387776609    2.4449278638
C        3.6155874365    0.3768694680    0.3636867975
N        0.8921958352   -0.6570094359   -0.0218197457
N       -0.8731852131   -0.6651162307   -1.5613761390
N        2.8691059990    1.0713853583    1.4084928896
O        1.1567470494    2.4617990752    1.8123676603
H       -0.8843553149    2.2098942359    0.2477640911
H       -2.4185640399    0.0541871281   -0.3118059552
H       -2.0024798349    1.1175120549   -1.6732409556
H        0.3911953960   -2.3085909167   -1.2259493011
H       -0.7584268280   -1.9645206096    0.0959808700
H        4.5887988288    1.2027411134    2.6248093102
H        3.0951497547    1.7585480040    3.3878808316
H        3.8809587985    2.7662514899    2.1446087247
H        4.6097628206    0.8214921694    0.2521454947
H        3.1230371029    0.4778722170   -0.6090091894
H        3.7308161425   -0.6825723167    0.6103461633
H        1.7520406715   -1.0776331154    0.3106740347
H       -1.4807918759   -1.2097660627   -2.1639132355
24   

C       -0.6105614079    1.1701554819   -0.0547964389
C        0.5506660577    0.6066449144    0.4227074343
C        1.4836639374    1.3522963927    1.3368038258
C       -1.5377092109    0.4327502197   -0.9729316930
C       -0.1481049466   -1.5732725457   -0.5714851880
C        3.6563467479    1.6884991277    2.4608822171
C        3.5668718640    0.4409973754    0.3040368092
N        0.8437611481   -0.7366878973    0.0991048189
N       -0.8283334029   -0.7221773539   -1.5426819644
N        2.8528817443    1.0528415654    1.4214019834
O        1.0593535571    2.2477287168    2.0704236607
H       -0.8326268886    2.2004169859    0.1971478244
H       -2.4146257667    0.0965770782   -0.4101948971
H       -1.8738060757    1.1000463123   -1.7733530645
H        0.3463275742   -2.4032906561   -1.0857028862
H       -0.8633425014   -1.9737418954    0.1551545451
H        4.6349597156    1.2047910777    2.5406162468
H        3.1612305624    1.5984843913    3.4333933502
H        3.8022344352    2.7488886315    2.2311507065
H        4.5193554491    0.9548366598    0.1393291404
H        3.0009491025    0.5322905058   -0.6288861614
H        3.7661041551   -0.6153848363    0.5061366907
H        1.6661037025   -1.1776556453    0.4959725528
H       -1.4219455440   -1.2616384767   -2.1636005957
24   

C       -0.5720589599    1.1609065699   -0.0769887368
C        0.5351287807    0.5561018168    0.4694374941
C        1.4516438287    1.2601362917    1.4344762790
C       -1.4800477022    0.4422856669   -1.0287867422
C       -0.2101840891   -1.6159316804   -0.5020408579
C        3.6657642723    1.6385285266    2.4651696520
C        3.5097403095    0.5079997228    0.2423080583
N        0.7783466581   -0.8100112868    0.2099143187
N       -0.7934143163   -0.7580140204   -1.5299882227
N        2.8367206900    1.0405732874    1.4242176654
O        0.9954407656    2.0015302817    2.3081198512
H       -0.7610249199    2.2039362810    0.1468509718
H       -2.4015780345    0.1603383095   -0.5092398535
H       -1.7395560747    1.1027785489   -1.8626551432
H        0.2746992395   -2.4789482593   -0.9688569809
H       -0.9844375191   -1.9671801453    0.1886650308
H        4.6662785370    1.1947405789    2.4615034446
H        3.2273826127    1.4608350332    3.4526585692
H        3.7560655440    2.7173608747    2.3028689682
H        4.4155587519    1.0858977512    0.0330474211
H        2.8786245005    0.5852108714   -0.6490466017
H        3.7848444934   -0.5393862959    0.3965962048
H        1.5578910595   -1.2753500520    0.6625669064
H       -1.3750366315   -1.2857194337   -2.1720406705
24   

C       -0.4454714771    1.1627903786   -0.0400340716
C        0.5973904712    0.5102105026    0.5713560688
C        1.5252271129    1.1715821667    1.5594084122
C       -1.3512608130    0.4639383942   -1.0087556454
C       -0.2223726972   -1.6455368511   -0.3664981952
C        3.7926531617    1.6233597750    2.4438563297
C        3.5184173433    0.6030723692    0.1749880234
N        0.7736027556   -0.8744890383    0.3732151711
N       -0.7100644875   -0.7868948610   -1.4437650460
N        2.9150286912    1.0586467673    1.4248676846
O        1.0793556222    1.7413016975    2.5588715580
H       -0.5810626593    2.2216235196    0.1431290413
H       -2.3076950220    0.2478470468   -0.5217367095
H       -1.5390891793    1.1103035096   -1.8723887318
H        0.2365577704   -2.5456184264   -0.7873165195
H       -1.0462978692   -1.9363066075    0.2941769189
H        4.7923948673    1.1835500959    2.3730870252
H        3.4089529049    1.4100527642    3.4468654523
H        3.8718097580    2.7073923821    2.3144762752
H        4.3713146806    1.2384132379   -0.0839645990
H        2.8153946187    0.6665223551   -0.6618229946
H        3.8613071149   -0.4312536574    0.2712261173
H        1.5062112637   -1.3662043150    0.8744609689
H       -1.2904328106   -1.3017560828   -2.0973228136
24   

C       -0.3846483398    1.1850528743   -0.1340713875
C        0.5423535814    0.4744974475    0.5876943028
C        1.4425935155    1.0764774920    1.6407896329
C       -1.2442245228    0.5212063582   -1.1674761653
C       -0.3077778679   -1.6426432148   -0.3980583611
C        3.7050189893    1.6659986727    2.4763855465
C        3.4130784368    0.7994219914    0.1445645023
N        0.6595581958   -0.9197631946    0.4234904522
N       -0.6444327838   -0.7742761844   -1.5255271104
N        2.8262692555    1.1378192507    1.4384700617
O        0.9821644344    1.4307930642    2.7300846279
H       -0.4597807949    2.2553506016    0.0118185145
H       -2.2501145562    0.3711218848   -0.7618883398
H       -1.3185308119    1.1596713399   -2.0538585858
H        0.1340331420   -2.5741545517   -0.7654314196
H       -1.2043102800   -1.8754651473    0.1867035788
H        4.6888461214    1.1902980162    2.4166161116
H        3.3063313676    1.4632864966    3.4755537602
H        3.8236955718    2.7471564129    2.3546978588
H        4.2303465979    1.4886162516   -0.0901051447
H        2.6847863561    0.8857603581   -0.6680464984
H        3.8031557766   -0.2226778793    0.1603769909
H        1.3021634761   -1.4448835999    1.0079629268
H       -1.1949029542   -1.2660853568   -2.2213722644
24   

C       -0.2001276380    1.2083342300   -0.2434856782
C        0.5522816298    0.4229041400    0.5941232054
C        1.4628698054    0.9444369718    1.6808367798
C       -1.0474931305    0.6022102115   -1.3213487404
C       -0.4121531711   -1.6231430137   -0.4220758559
C        3.6831527403    1.7579271863    2.4457524373
C        3.3397372701    1.0809595688    0.0566224130
N        0.5570680834   -0.9771255633    0.4585257479
N       -0.5669475622   -0.7618874733   -1.5947351773
N        2.7977838119    1.2541241316    1.4010937629
O        1.0346027847    1.0868141815    2.8307007552
H       -0.1493860586    2.2856191998   -0.1490049802
H       -2.0905255260    0.5730409873   -0.9888908936
H       -0.9891515686    1.2126795757   -2.2282673462
H       -0.0425128071   -2.6064316472   -0.7293256453
H       -1.3711460551   -1.7444053659    0.0933490326
H        4.2641882722    0.9363550918    2.8756193292
H        3.1200635960    2.2484799850    3.2461520818
H        4.3694888554    2.5027695088    2.0309280681
H        3.2134276604    1.9997624343   -0.5242339200
H        2.8529359135    0.2564593193   -0.4735868117
H        4.4057687073    0.8384105586    0.1078643342
H        1.0663803177   -1.5434859375    1.1302170674
H       -1.1144508125   -1.2172399794   -2.3172430747
24   

C        0.0090244456    1.1930801331   -0.3098654032
C        0.6058837515    0.3650198598    0.6095581290
C        1.5434420256    0.8131615410    1.7034987796
C       -0.8659073692    0.6428353366   -1.3955468467
C       -0.5367597136   -1.5986885988   -0.3771821473
C        3.6621133025    1.8495187957    2.4645069743
C        3.3121760674    1.3262528126    0.0364255971
N        0.4682066654   -1.0294209141    0.5154659498
N       -0.5462355018   -0.7801873618   -1.5902503150
N        2.7938571693    1.3592981779    1.4003841445
O        1.1720612201    0.7613147259    2.8814887559
H        0.1945691710    2.2586822592   -0.2660836916
H       -1.9158735845    0.7540194467   -1.1042468336
H       -0.7029944307    1.1989363647   -2.3242874215
H       -0.2742180761   -2.6313259138   -0.6274260221
H       -1.5214289654   -1.5843413977    0.1027538535
H        4.2619222103    1.0288415930    2.8700933079
H        3.0759399098    2.2962155146    3.2741919339
H        4.3320344927    2.6251273330    2.0804362920
H        3.0889682046    2.2653624304   -0.4787511960
H        2.8847058227    0.4957527655   -0.5350646780
H        4.3963748496    1.1762323894    0.0482319049
H        0.8541858702   -1.6105568111    1.2543688675
H       -1.1202446084   -1.2009324169   -2.3131376607
24   

C        0.2206342512    1.0720441893   -0.3541825450
C        0.7567213743    0.2566022718    0.6147046717
C        1.7321722618    0.6823427529    1.6804015370
C       -0.7219074534    0.5332627928   -1.3881339429
C       -0.5832755914   -1.6526172571   -0.2150631137
C        3.7437994311    1.9037938888    2.4442794846
C        3.3709991658    1.5002359236   -0.0004359403
N        0.4925131938   -1.1199295279    0.6146648935
N       -0.5464991320   -0.9241003877   -1.4836751534
N        2.8873379886    1.4080982421    1.3732328706
O        1.4479138240    0.4733786721    2.8664909325
H        0.4896552056    2.1200597297   -0.3810761702
H       -1.7507726116    0.7669538033   -1.0938963661
H       -0.5233581982    1.0037175321   -2.3563770431
H       -0.4247052543   -2.7205612979   -0.3945827709
H       -1.5497101557   -1.5108921819    0.2809777897
H        4.4036168396    1.1062480891    2.7999776678
H        3.1433570709    2.2710468634    3.2830055207
H        4.3545420947    2.7390777706    2.0876334585
H        3.0581682847    2.4458606340   -0.4531627204
H        2.9993767682    0.6703451663   -0.6106433487
H        4.4639239378    1.4414243731   -0.0203208584
H        0.8176260102   -1.6664540140    1.4084548806
H       -1.1753529033   -1.3378679533   -2.1636088907
24   

C        0.3143512657    0.9831857857   -0.4534190381
C        0.7942941743    0.1715959400    0.5497278587
C        1.7845463329    0.5591953379    1.6139188715
C       -0.6817796470    0.4778672695   -1.4542662180
C       -0.7410462665   -1.6392673176   -0.1546507697
C        3.7052210450    1.8608699809    2.4656305640
C        3.3553620064    1.6208092050    0.0000722280
N        0.3964612129   -1.1677687956    0.6274483651
N       -0.6542010060   -0.9924480508   -1.4641152454
N        2.8733652299    1.4009462674    1.3594721596
O        1.5726753823    0.1933326314    2.7781529287
H        0.6501968333    2.0087873395   -0.5278173350
H       -1.6808531338    0.8300934399   -1.1758858851
H       -0.4426153928    0.8676246999   -2.4488148283
H       -0.6909888440   -2.7262711094   -0.2720077401
H       -1.6797988166   -1.3735967012    0.3436263583
H        4.4007970572    1.0721726628    2.7692168511
H        3.0856343601    2.1406987601    3.3240001642
H        4.2770517560    2.7462831414    2.1706501348
H        2.9824614422    2.5727451716   -0.3896055046
H        3.0444099936    0.8100933384   -0.6671221406
H        4.4498927710    1.6381724186   -0.0140584897
H        0.6753562409   -1.6854680179    1.4586311710
H       -1.3298755596   -1.3815800951   -2.1128747399
24   

C        0.4142625319    0.8813017760   -0.5052822959
C        0.8691989193    0.0916738350    0.5288933241
C        1.8772197939    0.4674955574    1.5808858598
C       -0.6355360157    0.3916941958   -1.4589562285
C       -0.8312502113   -1.6253420840   -0.0224678232
C        3.7256334014    1.8249484113    2.4952585805
C        3.3679302158    1.7257608467    0.0259927723
N        0.3620997606   -1.1978726697    0.6982819981
N       -0.7280032442   -1.0729987138   -1.3727277493
N        2.9019259435    1.3990047764    1.3690175213
O        1.7663912967   -0.0343766185    2.7085851454
H        0.7925482722    1.8848694990   -0.6388111765
H       -1.5983385386    0.8417818755   -1.1942557839
H       -0.3823218944    0.6943413171   -2.4800081502
H       -0.8711097771   -2.7181218850   -0.0682594907
H       -1.7312354796   -1.2520770583    0.4783008462
H        4.4499555416    1.0451213844    2.7509671226
H        3.1010404465    2.0332771671    3.3702295719
H        4.2647443003    2.7451226108    2.2489906011
H        2.9406540195    2.6759144997   -0.3083695840
H        3.1066010238    0.9364671090   -0.6864650057
H        4.4595020339    1.8092699457    0.0153303815
H        0.6392348696   -1.6870729274    1.5483879616
H       -1.4479526161   -1.4472144890   -1.9813147954
24   

C        0.4791103999    0.7968726152   -0.5914244032
C        0.9112457098    0.0260376992    0.4688982998
C        1.9394109239    0.3808451097    1.5114207950
C       -0.6185145423    0.3316793770   -1.5037985926
C       -0.9389422895   -1.5763352687    0.0509738702
C        3.7272203724    1.7608028349    2.5048732499
C        3.3404458687    1.8422084485    0.0445734547
N        0.3015050358   -1.2019926460    0.7185738881
N       -0.8234919376   -1.1132191860   -1.3305504294
N        2.9036971876    1.3876518220    1.3591371456
O        1.9386489514   -0.2541581726    2.5762169747
H        0.8974203804    1.7732194967   -0.7830486109
H       -1.5402155984    0.8702615810   -1.2590450637
H       -0.3566922197    0.5520310793   -2.5436167967
H       -1.0643079890   -2.6633876641    0.0721014930
H       -1.7945823477   -1.1041112333    0.5458527235
H        4.4942122780    1.0006069294    2.6839701069
H        3.1093663173    1.8632013684    3.4031755101
H        4.2147733864    2.7249179036    2.3293397035
H        2.8368762105    2.7749580885   -0.2268968316
H        3.1483153420    1.0811749627   -0.7187579512
H        4.4210766914    2.0181126295    0.0453493787
H        0.5968951943   -1.6901115033    1.5641116451
H       -1.5823498542   -1.4647978125   -1.9042975764
24   

C        0.5576102575    0.7021578367   -0.6721828662
C        0.9538934336   -0.0206939428    0.4376296436
C        2.0205366897    0.3049394845    1.4564972443
C       -0.5938745830    0.2592865118   -1.5287378594
C       -1.0419881155   -1.4852257953    0.1731015371
C        3.7933612981    1.6572854277    2.5131117929
C        3.2868157676    1.9952212884    0.1007174330
N        0.2337707767   -1.1556070116    0.7952473967
N       -0.9117573688   -1.1456374492   -1.2414408893
N        2.9389116478    1.3633414413    1.3656373223
O        2.1246653086   -0.4397804835    2.4431407386
H        1.0399750027    1.6188108169   -0.9677467237
H       -1.4638040439    0.8890532304   -1.3143480077
H       -0.3365793644    0.3762470798   -2.5863606626
H       -1.2503435034   -2.5538711255    0.2846291168
H       -1.8507688202   -0.9092416449    0.6357796258
H        4.6021792506    0.9228264925    2.5812800830
H        3.2110007517    1.6339027415    3.4402527083
H        4.2270163344    2.6583508240    2.4246252747
H        2.6408483232    2.8578940881   -0.0891583542
H        3.2156804593    1.2782300483   -0.7235925548
H        4.3250008870    2.3422561242    0.1217538346
H        0.5562373337   -1.6556965434    1.6243747710
H       -1.7055080129   -1.4782873412   -1.7780318610
24   

C        0.8132831034    0.6008673955   -0.6638022549
C        0.9097584525    0.2860574384    0.6754731253
C        2.1048905462    0.4530629003    1.5801136107
C       -0.3903423818    0.2064835822   -1.4646512516
C       -1.3341095163   -0.8031261863    0.5919122856
C        4.3536354512    1.2749775643    2.1778227388
C        3.0217964926    2.4884815967    0.4534264262
N       -0.1279671115   -0.3936210564    1.3070508014
N       -0.9933105293   -0.9677751674   -0.8208210678
N        3.1676278160    1.3325578137    1.3293678387
O        2.1582302384   -0.2372509251    2.6070543357
H        1.6547217620    1.0146467774   -1.1990848968
H       -1.1064643472    1.0337322476   -1.4969787003
H       -0.0886548669   -0.0397579828   -2.4881122717
H       -1.7003308292   -1.7528094874    0.9947370678
H       -2.1151253406   -0.0445877922    0.7084578535
H        5.1949960725    1.7831205329    1.6962309084
H        4.6521087968    0.2352490779    2.3485922600
H        4.1533472552    1.7518704600    3.1424810366
H        1.9733914002    2.7942925338    0.3772909787
H        3.4163881272    2.2680743111   -0.5430868393
H        3.5690130832    3.3437771339    0.8629990331
H        0.1251907965   -0.8547254562    2.1817758007
H       -1.7716188558   -1.3456515896   -1.3502956410
24   

C        0.8720027648    0.4996949613   -0.7128045844
C        0.9511232026    0.2225589343    0.6341303995
C        2.1611559364    0.3669378195    1.5172742123
C       -0.3603001930    0.1669823210   -1.4975683171
C       -1.3852303579   -0.6464582776    0.6106906314
C        4.3798133620    1.2773602982    2.1051588180
C        2.9148540849    2.5200387113    0.5071651405
N       -0.1422757083   -0.3260517206    1.3089877850
N       -1.0675662636   -0.9109791639   -0.7927301007
N        3.1612760877    1.3241567118    1.3044448006
O        2.3074322175   -0.4429251178    2.4420687848
H        1.7463925036    0.8384910118   -1.2508009164
H       -1.0001662182    1.0509670364   -1.5823130750
H       -0.0792868620   -0.1631510075   -2.5031717342
H       -1.8429550062   -1.5349787194    1.0570729042
H       -2.0870844317    0.1901589065    0.6906289510
H        5.1725117072    1.8643212822    1.6307155948
H        4.7415293710    0.2475732925    2.1939420346
H        4.1907452196    1.6769926495    3.1064620647
H        1.8448413809    2.7452090272    0.4531069302
H        3.3134258094    2.3961313359   -0.5042503113
H        3.3960445774    3.3875689645    0.9703162802
H        0.0863056845   -0.8213043472    2.1707913126
H       -1.8780592291   -1.2444369328   -1.3034670182
24   

C        0.9605496639    0.3767213630   -0.7711529380
C        1.0312674614    0.1366857259    0.5817427391
C        2.2574305897    0.2582687243    1.4441232181
C       -0.3005238921    0.1124844904   -1.5359689034
C       -1.3781570987   -0.4932730634    0.6188258729
C        4.4299913073    1.2650735602    2.0559517293
C        2.8475864291    2.5149581575    0.5733233985
N       -0.1018706154   -0.2755722777    1.2970648927
N       -1.1027280927   -0.8540322256   -0.7722854109
N        3.1877856663    1.2924216392    1.2922066990
O        2.4973590552   -0.6518936649    2.2471732873
H        1.8564438175    0.6434470680   -1.3160734929
H       -0.8569099319    1.0451176835   -1.6722937891
H       -0.0549372690   -0.2986272359   -2.5208100356
H       -1.9232400620   -1.3071210071    1.1074423051
H       -1.9872877880    0.4155183894    0.6632873348
H        5.1782653198    1.9147856802    1.5913163076
H        4.8452064723    0.2521661762    2.0817626954
H        4.2511308273    1.6037175434    3.0813011064
H        1.7639139528    2.6674671777    0.5412938007
H        3.2379225129    2.4797653039   -0.4481927365
H        3.2735329270    3.3840083891    1.0850712742
H        0.0881984413   -0.7897709464    2.1559346868
H       -1.9458506688   -1.1338285591   -1.2620368641
24   

C        1.0191155303    0.2383479834   -0.8553518840
C        1.0902957799    0.0597069192    0.5055315142
C        2.3387490393    0.1581812290    1.3406767982
C       -0.2706842574    0.0417640247   -1.5921671057
C       -1.3682627223   -0.3177436732    0.6095476608
C        4.4430303496    1.2698665455    2.0151124324
C        2.7477244258    2.5109476675    0.6490324403
N       -0.0654517282   -0.2028933676    1.2626962066
N       -1.1540610026   -0.7880457069   -0.7594309485
N        3.1847301490    1.2696677984    1.2780589068
O        2.6758889284   -0.8240829976    2.0115199263
H        1.9273722606    0.4167584008   -1.4164928264
H       -0.7373213453    1.0116713929   -1.7909350145
H       -0.0769052443   -0.4576803622   -2.5472859319
H       -1.9915248891   -1.0368558934    1.1504888927
H       -1.8740694261    0.6533846028    0.6048423274
H        5.1394440478    1.9934702512    1.5800608611
H        4.9207012054    0.2857209287    1.9680657641
H        4.2666324213    1.5308700421    3.0633247861
H        1.6555531695    2.5833326186    0.6265530727
H        3.1325943398    2.5770482677   -0.3730071196
H        3.1094613254    3.3710234848    1.2216183253
H        0.0803486799   -0.7071858800    2.1347763197
H       -2.0283622387   -1.0117440128   -1.2226971682
24   

C        1.1080750116    0.0526685663   -0.9268985298
C        1.2061771978   -0.0042587318    0.4414424750
C        2.4897199671    0.0856591881    1.2286670509
C       -0.2145095938   -0.1076938427   -1.6125065073
C       -1.2700032880   -0.1639577950    0.6394957913
C        4.4794879108    1.3258495403    2.0268282587
C        2.6572176804    2.5270681041    0.7925353715
N        0.0569163519   -0.1177305528    1.2513642886
N       -1.1403530758   -0.7741335471   -0.6839475982
N        3.2117149615    1.2799078596    1.3075212816
O        2.9405758024   -0.9359865549    1.7568533046
H        2.0107786466    0.1184082485   -1.5208084424
H       -0.6055886756    0.8741357473   -1.8975474695
H       -0.0898533058   -0.7117787561   -2.5173440940
H       -1.9418018587   -0.7683522955    1.2571997970
H       -1.6822929097    0.8470427600    0.5561715471
H        5.1118233534    2.1268911317    1.6314567191
H        5.0305254969    0.3869854092    1.9097946887
H        4.3024238208    1.5040124478    3.0920689548
H        1.5637533976    2.4956966496    0.7536725766
H        3.0438421042    2.7296703914   -0.2107522717
H        2.9256864926    3.3583273648    1.4522152610
H        0.1800815268   -0.5703269244    2.1537229436
H       -2.0445110571   -0.9600362998   -1.1047331724
24   

C        1.1205652399   -0.2108279636   -1.0046987084
C        1.2612317145   -0.0472146695    0.3506390832
C        2.5810579282    0.0450680418    1.0808868911
C       -0.2314212607   -0.3812099463   -1.6271267540
C       -1.2123208651   -0.0435135348    0.6345119085
C        4.4241322101    1.3730420766    2.0847738923
C        2.4829055067    2.5254562102    0.9871831857
N        0.1335388426   -0.0175343011    1.2036228181
N       -1.1686598769   -0.8410174603   -0.5908055433
N        3.1444313022    1.2878240986    1.3877030568
O        3.1457933313   -0.9871518958    1.4546248944
H        2.0057480822   -0.2981268847   -1.6219366120
H       -0.5679720142    0.5738532427   -2.0433953821
H       -0.1752058807   -1.1151866960   -2.4377382986
H       -1.9070221816   -0.5014211731    1.3456981956
H       -1.5504217339    0.9754147881    0.4183287050
H        5.0084669009    2.2185785044    1.7089612470
H        5.0253981638    0.4717619942    1.9278424397
H        4.2583868566    1.5026998556    3.1586538176
H        1.9135626285    2.3964711845    0.0617625791
H        3.2209288293    3.3115418709    0.8001537331
H        1.8036019359    2.8604381223    1.7773366225
H        0.2558437930   -0.3670663016    2.1499550203
H       -2.0969787931   -1.0147710031   -0.9611921143
24   

C        1.1349956239   -0.4360124916   -1.0280805191
C        1.3283708612   -0.0800351267    0.2831999303
C        2.6825793926    0.0264942361    0.9474206146
C       -0.2405414865   -0.6317290910   -1.5875536253
C       -1.1367340524    0.0326632102    0.6343474492
C        4.3882288905    1.3433959001    2.1924335461
C        2.3676252707    2.4738181837    1.2378923690
N        0.2256671295    0.0643175537    1.1612096890
N       -1.1628922176   -0.9156698461   -0.4777703260
N        3.1205708522    1.2468397412    1.4752807622
O        3.3604047149   -0.9866916971    1.1418565748
H        1.9967542094   -0.6459380238   -1.6492841633
H       -0.5537706475    0.2755046782   -2.1147385690
H       -0.2360338480   -1.4640288767   -2.2989095742
H       -1.8295547574   -0.2969833660    1.4149511804
H       -1.4347989058    1.0311707409    0.2973452605
H        5.1729889717    1.7072349133    1.5220258189
H        4.6971350009    0.3757521996    2.6002062780
H        4.2900747615    2.0331467164    3.0364052374
H        1.8398258053    2.4379236188    0.2795146076
H        3.0444631335    3.3330986248    1.1977398581
H        1.6400963094    2.6329945050    2.0397340764
H        0.3637079444   -0.1752847580    2.1384868828
H       -2.1082663520   -1.0903452888   -0.8016700926
24   

C        1.3053563982   -0.5565629136   -0.9950719537
C        1.5110209859   -0.0723983829    0.2735759628
C        2.8831141389    0.1112131348    0.8796423121
C       -0.0698623537   -0.8403560360   -1.5155300482
C       -0.9564655740   -0.0023151243    0.6463245073
C        4.5068967297    1.3904168590    2.2458384589
C        2.3860546210    2.4775266249    1.4788809348
N        0.4105884925    0.1039490798    1.1504319728
N       -0.9708484419   -1.0489040966   -0.3726831578
N        3.2166192410    1.2810231948    1.5741193640
O        3.6976910643   -0.8163375132    0.8703464555
H        2.1647926859   -0.8002404066   -1.6076338252
H       -0.4148184302    0.0071386200   -2.1171918637
H       -0.0490883538   -1.7322517482   -2.1501980575
H       -1.6339900437   -0.2734165076    1.4620751320
H       -1.2791943685    0.9547015750    0.2226929008
H        5.2861396657    1.6569403002    1.5249327980
H        4.7756151255    0.4455037615    2.7292543037
H        4.4664356978    2.1572608022    3.0257122048
H        1.7751398125    2.4693428294    0.5705717914
H        3.0158135294    3.3713753496    1.4277314013
H        1.7279439161    2.5548848553    2.3494650482
H        0.5642980512   -0.0362519335    2.1441366914
H       -1.9148844308   -1.2736406650   -0.6683642597
24   

C       -0.1370596211    0.6481647684    0.6619813909
C        1.2057588728    0.4101298231    0.4873261585
C        2.2644390786    1.1339570470    1.2817625756
C       -1.1762981563    0.0123876896   -0.2086050998
C        0.6614721196   -1.1956118313   -1.3502450512
C        4.5119275822    1.3105454576    2.2945553852
C        3.6163551976   -0.9316546276    1.6465267698
N        1.6310827222   -0.4164764492   -0.5841634116
N       -0.5475136163   -0.3870148476   -1.4754086927
N        3.4724182658    0.5209934822    1.6430598957
O        2.1146075007    2.3249142941    1.5702844548
H       -0.4457245444    1.3679285481    1.4107051343
H       -1.5911231375   -0.8646744887    0.2992270435
H       -1.9881918998    0.7228499930   -0.3951874094
H        1.0624180410   -1.4153645595   -2.3446930757
H        0.4451101058   -2.1400114095   -0.8395365892
H        4.2277489739    1.5291997633    3.3288418612
H        4.6683249084    2.2531013965    1.7596945303
H        5.4626620953    0.7682723835    2.2955123441
H        4.1396800353   -1.2558312324    2.5516303103
H        4.1820055986   -1.2624260777    0.7706297286
H        2.6422826656   -1.4307942561    1.6535998709
H        2.5282317524   -0.2172209376   -1.0149209632
H       -1.2150485202   -0.8041039657   -2.1153821275
24   

C       -0.2014339224    0.6541996002    0.5345035522
C        1.1394761991    0.3586140981    0.4373379877
C        2.1743083608    1.0792362928    1.2626124855
C       -1.2277682936    0.0129528747   -0.3472036943
C        0.5979608907   -1.3522004512   -1.3079306404
C        4.4429711591    1.3779391945    2.1913075747
C        3.6860037574   -0.8971584648    1.5008277798
N        1.5679688609   -0.5630823864   -0.5527018493
N       -0.5595428593   -0.4979772512   -1.5516765754
N        3.4409934143    0.5411625938    1.5387116003
O        1.9348004482    2.2105146512    1.6951487951
H       -0.5177748415    1.4224385056    1.2302635636
H       -1.7112127801   -0.8078859533    0.1928520586
H       -1.9922304744    0.7477257790   -0.6201323078
H        1.0335025423   -1.6641861000   -2.2623640595
H        0.3099411414   -2.2443037369   -0.7415930933
H        4.1827243585    1.5288697736    3.2438527343
H        4.5071401548    2.3523895097    1.6958763948
H        5.4313546766    0.9113478888    2.1333418298
H        4.3003359449   -1.1974774558    2.3556099589
H        4.2036096835   -1.1749023178    0.5780967112
H        2.7512674382   -1.4615679380    1.5772971161
H        2.4908513055   -0.4357279398   -0.9546438878
H       -1.2158204482   -0.9275371664   -2.1950489898
24   

C       -0.2046092352    0.7183234961    0.5348920372
C        1.1217869391    0.3453356131    0.5089160721
C        2.1446417033    1.0133686579    1.3920490474
C       -1.2269401653    0.1182068601   -0.3798786247
C        0.5419369361   -1.4039862452   -1.1891883437
C        4.4219232628    1.3696020966    2.2748781385
C        3.7783999759   -0.8868751824    1.4400426284
N        1.5279672549   -0.6479666741   -0.4211244648
N       -0.5363034151   -0.4824362060   -1.5285303450
N        3.4491825989    0.5272435164    1.5848066266
O        1.8489117084    2.0521185234    1.9901319308
H       -0.5120425244    1.5167800380    1.2000518403
H       -1.7957870692   -0.6458867285    0.1601855547
H       -1.9212793839    0.8942251657   -0.7182833163
H        0.9993631502   -1.7901382122   -2.1054971687
H        0.1633930386   -2.2459005864   -0.5997440970
H        4.1963452294    1.4105484658    3.3452817462
H        4.4025845969    2.3857664825    1.8669969537
H        5.4353479619    0.9790424255    2.1391857957
H        4.4779339527   -1.1935820621    2.2241967616
H        4.2372099252   -1.0783853970    0.4657227075
H        2.8889993756   -1.5136154516    1.5590832769
H        2.4711401597   -0.5946341973   -0.7900541228
H       -1.1883940164   -0.8927644822   -2.1885249451
24   

C       -0.1966836129    0.7515845709    0.4804036093
C        1.1042245176    0.2970928691    0.5409100342
C        2.1042574706    0.9249758844    1.4829106116
C       -1.2099947575    0.1815877495   -0.4635747148
C        0.4715672803   -1.5170501249   -1.0727981440
C        4.3618371336    1.3507019694    2.3857234313
C        3.8853391842   -0.8467911218    1.3213236961
N        1.4769265405   -0.7813416147   -0.3107451806
N       -0.5085305976   -0.5407216949   -1.5324811293
N        3.4404892479    0.5078742199    1.6273332760
O        1.7487609024    1.8587199194    2.2082778835
H       -0.4898711751    1.5910011440    1.1000200875
H       -1.8716992176   -0.5000253617    0.0810292854
H       -1.8160018801    0.9892901451   -0.8869408566
H        0.9390224447   -2.0052732717   -1.9336463076
H       -0.0015621563   -2.2799471206   -0.4452916066
H        4.1649008079    1.2585331142    3.4585188850
H        4.2490619258    2.3995431311    2.0911702649
H        5.3996251480    1.0649908862    2.1873539157
H        4.6886911038   -1.1438230171    2.0030480452
H        4.2599597534   -0.9082861427    0.2954528957
H        3.0767019713   -1.5687253318    1.4714018435
H        2.4314961182   -0.8105545587   -0.6494694437
H       -1.1559643678   -0.9441953533   -2.2012617341
