21   
Generated by ForceBalance from scan.xyz: Frame 1 of 24
C        7.3384628663   -2.3668668963   -1.3612623921
C        6.8919846742   -1.0477752861   -1.4916422014
C        6.4723232409   -3.3390458929   -0.8551860160
C        5.5911436008   -0.7114196109   -1.1117785986
C        5.1664196000   -3.0057337739   -0.4811326233
C        4.7184658349   -1.6831248142   -0.5970590900
C        0.7982219429   -1.4483754834    1.0028591339
C        3.3074339755   -1.2341330525   -0.2701316767
O        2.9900541271   -2.4937189313    2.0889643506
O        2.0181000942   -3.5804024378   -0.0082622839
S        2.3368683813   -2.3746634833    0.7762465133
H        8.3513296210   -2.6331067407   -1.6518246561
H        7.5542480916   -0.2811039342   -1.8852201564
H        6.8089563531   -4.3672178382   -0.7524981714
H        5.2536698593    0.3185626648   -1.2107362799
H        4.5078919182   -3.7817644042   -0.1078023033
H        0.1493630023   -2.1002006780    1.5909910767
H        0.3479537798   -1.2481718378    0.0292869359
H        1.0067340484   -0.5281209056    1.5505320713
H        2.7141766095   -1.1168354564   -1.1834744567
H        3.3192361361   -0.2805262264    0.2655518773
21   
Generated by ForceBalance from scan.xyz: Frame 2 of 24
C        7.3528193219   -2.3605314093   -1.3406070051
C        6.9322732581   -1.0274859837   -1.3600800149
C        6.4474681782   -3.3623348034   -0.9784859134
C        5.6184922514   -0.7037197574   -1.0115535385
C        5.1296873554   -3.0430084250   -0.6399565960
C        4.7093234714   -1.7044123560   -0.6379603604
C        0.8214413883   -1.4618474196    1.0234871572
C        3.2796992163   -1.2901860574   -0.3637491577
O        3.1044444988   -2.2208731057    2.1610707177
O        2.1364496200   -3.6413556376    0.2705474934
S        2.4068298406   -2.3222548410    0.8705973066
H        8.3754414334   -2.6158434630   -1.6058365554
H        7.6247784320   -0.2388892624   -1.6424543549
H        6.7641812054   -4.4018597914   -0.9643957873
H        5.3022856942    0.3373771668   -1.0209743020
H        4.4343920429   -3.8343827964   -0.3810616859
H        0.2291455369   -2.0599686737    1.7186461378
H        0.3332437494   -1.4249872993    0.0482683456
H        0.9891406330   -0.4638264663    1.4310905252
H        2.6659610864   -1.3610041114   -1.2685831366
H        3.2357247346   -0.2658561276    0.0152397367
21   
Generated by ForceBalance from scan.xyz: Frame 3 of 24
C        7.3451567225   -2.3663118055   -1.3125881624
C        6.9531702092   -1.0281294259   -1.2190148836
C        6.4032195141   -3.3788280545   -1.1013800219
C        5.6279314885   -0.7087935700   -0.9098562709
C        5.0761988374   -3.0624266438   -0.8023862167
C        4.6819524419   -1.7193843450   -0.6892162329
C        0.8287409352   -1.4654291118    1.0301984551
C        3.2447552565   -1.3272196101   -0.4451636741
O        3.1845592719   -1.8979315171    2.1907039576
O        2.2792220086   -3.6356250053    0.5483667043
S        2.4681517498   -2.2298194832    0.9502676345
H        8.3756594861   -2.6185864043   -1.5486979756
H        7.6756155879   -0.2330183082   -1.3833460807
H        6.7005967047   -4.4216011204   -1.1745022501
H        5.3315599669    0.3347839666   -0.8299843953
H        4.3506903970   -3.8540592853   -0.6456106194
H        0.2948926835   -1.9936262824    1.8225376643
H        0.3180356522   -1.6031511885    0.0757427603
H        0.9343971400   -0.4096788690    1.2844236533
H        2.6114920828   -1.5524616094   -1.3098585987
H        3.1597630431   -0.2649599717   -0.2039138060
21   
Generated by ForceBalance from scan.xyz: Frame 4 of 24
C        7.3434350557   -2.3770489497   -1.2780350263
C        6.9687108359   -1.0456960121   -1.0762812256
C        6.3755935906   -3.3863612331   -1.2230044231
C        5.6323228902   -0.7279497880   -0.8175180012
C        5.0390715992   -3.0701775417   -0.9720699968
C        4.6599579831   -1.7350611978   -0.7584605727
C        0.8519084048   -1.4954115292    1.0370022319
C        3.2188712462   -1.3643100018   -0.5300081624
O        3.2648568756   -1.5738222147    2.1574904807
O        2.4718441723   -3.5859851705    0.7921669939
S        2.5478676769   -2.1288927344    0.9995980489
H        8.3823073727   -2.6272909215   -1.4767683959
H        7.7135365705   -0.2554139255   -1.1178029560
H        6.6618442422   -4.4233115845   -1.3775148042
H        5.3465530913    0.3081295646   -0.6516992982
H        4.2922893331   -3.8563286344   -0.9211429972
H        0.3888055563   -1.9377860436    1.9211056808
H        0.3261109620   -1.8156066310    0.1360407702
H        0.8750776630   -0.4082443178    1.1272031504
H        2.5686337624   -1.7208831542   -1.3350156098
H        3.0945749774   -0.2857201992   -0.4103469232
21   
Generated by ForceBalance from scan.xyz: Frame 5 of 24
C        7.3283368369   -2.3905580183   -1.2302921059
C        6.9570127115   -1.0773884702   -0.9258548262
C        6.3484270458   -3.3847060098   -1.3299398233
C        5.6110671890   -0.7611005891   -0.7230579805
C        5.0030045935   -3.0696441101   -1.1307575582
C        4.6264373031   -1.7527307194   -0.8255448331
C        0.8775877877   -1.4832137294    1.0649745070
C        3.1813334036   -1.4048035889   -0.6099781739
O        3.3292408781   -1.2642721962    2.0753597179
O        2.6293515526   -3.4819339225    1.0070878138
S        2.6099632164   -2.0091169124    1.0301701706
H        8.3748215396   -2.6387026182   -1.3874713382
H        7.7130253009   -0.3011069466   -0.8434769218
H        6.6330154571   -4.4076742507   -1.5612573990
H        5.3255364669    0.2576706908   -0.4730608960
H        4.2451414775   -3.8452611832   -1.1918637378
H        0.4800272255   -1.8275706985    2.0216436221
H        0.3402250386   -1.9556572135    0.2411096203
H        0.8307614918   -0.3945971181    1.0069444015
H        2.5241510327   -1.8835958740   -1.3413260772
H        3.0138342567   -0.3253213664   -0.6114472168
21   
Generated by ForceBalance from scan.xyz: Frame 6 of 24
C        7.3207156350   -2.3907116807   -1.2050239994
C        6.9273780322   -1.1152560483   -0.7860721184
C        6.3534067813   -3.3706795648   -1.4522185202
C        5.5728387122   -0.8180113000   -0.6201015310
C        4.9985692171   -3.0748057396   -1.2869048425
C        4.6001479908   -1.7938846189   -0.8788851021
C        0.8988284392   -1.4599656715    1.0828567472
C        3.1464265868   -1.4850103383   -0.6730887542
O        3.3658285887   -0.9967596917    1.9635100414
O        2.7512329592   -3.3647043574    1.2095998882
S        2.6539419368   -1.9044756215    1.0490199951
H        8.3751181275   -2.6209480101   -1.3340565347
H        7.6755909812   -0.3534790862   -0.5841559767
H        6.6541157814   -4.3657511078   -1.7689867564
H        5.2690443879    0.1671159699   -0.2760682330
H        4.2483531374   -3.8417407115   -1.4599507646
H        0.5507927321   -1.6902888389    2.0916497281
H        0.3603770460   -2.0640457761    0.3508265971
H        0.7937718025   -0.3925740215    0.8820076116
H        2.4986362239   -2.0803629753   -1.3213551965
H        2.9248682151   -0.4222801239   -0.7986063212
21   
Generated by ForceBalance from scan.xyz: Frame 7 of 24
C        7.3230354940   -2.3888958733   -1.2108822428
C        6.9064927919   -1.1721129048   -0.6593850861
C        6.3725700003   -3.3403284116   -1.5939732960
C        5.5459396716   -0.9037184950   -0.4981155219
C        5.0106457083   -3.0748298171   -1.4301393190
C        4.5889307190   -1.8504522379   -0.8944750905
C        0.9059181833   -1.4262724480    1.0916292689
C        3.1259200520   -1.5840572758   -0.6877094544
O        3.3551201100   -0.7259162825    1.8521469431
O        2.8541839053   -3.2026706828    1.4478506615
S        2.6803419688   -1.7873007416    1.0855601749
H        8.3826481310   -2.5959556684   -1.3364106262
H        7.6418220219   -0.4342874940   -0.3497481132
H        6.6906114416   -4.2906682047   -2.0142282225
H        5.2235461834    0.0317745970   -0.0501998628
H        4.2737404410   -3.8231326997   -1.7111264003
H        0.5824554823   -1.5348125563    2.1286556525
H        0.3893423323   -2.1491253301    0.4580845678
H        0.7449446142   -0.4022001639    0.7510691078
H        2.4973924251   -2.2853816606   -1.2412736505
H        2.8482754166   -0.5569720431   -0.9410500803
21   
Generated by ForceBalance from scan.xyz: Frame 8 of 24
C        7.3376490609   -2.3902967212   -1.2535063653
C        6.9163055380   -1.2519936705   -0.5571864286
C        6.3893943416   -3.2885825370   -1.7511484061
C        5.5556609600   -1.0046324113   -0.3651826717
C        5.0271555015   -3.0465644733   -1.5530965107
C        4.5989781657   -1.8975785931   -0.8745185823
C        0.8922256067   -1.3988510356    1.0722585596
C        3.1266471623   -1.6678523426   -0.6608642628
O        3.2729681536   -0.4149731420    1.7180059024
O        2.9576360932   -2.9530186799    1.7044570768
S        2.6875291873   -1.6295022875    1.1230917150
H        8.3978725215   -2.5784628389   -1.4015065834
H        7.6495179171   -0.5564384210   -0.1575994836
H        6.7077127648   -4.1800655602   -2.2849688390
H        5.2337218919   -0.1292435658    0.1899541961
H        4.2934746579   -3.7571902974   -1.9263658801
H        0.5689160231   -1.3554788949    2.1140881558
H        0.4329880998   -2.2518864287    0.5702182113
H        0.6623337662   -0.4597100778    0.5665051350
H        2.5268241385   -2.4652839862   -1.1051914563
H        2.7956330421   -0.7005114631   -1.0524060664
21   
Generated by ForceBalance from scan.xyz: Frame 9 of 24
C        7.2627966038   -2.1667058865   -1.4569573373
C        6.0821716488   -2.5405597795   -2.1071856028
C        7.2176968590   -1.7694808648   -0.1176968178
C        4.8624847474   -2.5293692947   -1.4265874247
C        5.9970033465   -1.7467631639    0.5624938516
C        4.8137533561   -2.1407814259   -0.0782268071
C        0.8139556505   -1.3421661669    1.0330497930
C        3.5217862635   -2.1027886764    0.7027416901
O        1.7226051067   -2.2318414579   -1.2965499929
O        2.4704582683    0.0766767207   -0.4921036955
S        2.1321645352   -1.3257211238   -0.2081484338
H        8.2089246030   -2.1783521727   -1.9917731574
H        6.1082395217   -2.8399193466   -3.1516161780
H        8.1270981805   -1.4675404063    0.3951132774
H        3.9518242757   -2.8192271448   -1.9405407115
H        5.9662364348   -1.4188460732    1.5992156515
H       -0.0672144856   -0.9361146581    0.5326023627
H        1.0995004487   -0.7055716705    1.8718426941
H        0.6269138593   -2.3696369103    1.3493665354
H        3.6372387623   -1.5294908825    1.6256005331
H        3.1617186644   -3.1080266726    0.9481332467
21   
Generated by ForceBalance from scan.xyz: Frame 10 of 24
C        7.2830650301   -2.2000342901   -1.4481019041
C        6.0855584451   -2.4192330986   -2.1348584166
C        7.2500610597   -1.9112876165   -0.0805469678
C        4.8596028971   -2.3597851374   -1.4661025001
C        6.0254424245   -1.8409437316    0.5880693306
C        4.8216272294   -2.0772547695   -0.0926828803
C        0.8055913465   -1.3515390557    1.0413640157
C        3.5363324132   -1.9948101942    0.7034419077
O        1.6853361814   -2.5086205291   -1.1805093827
O        2.3137724194   -0.0718894416   -0.7387004368
S        2.0749791550   -1.4368338525   -0.2465657686
H        8.2328247023   -2.2478081780   -1.9743416913
H        6.1013307561   -2.6369230541   -3.1994957478
H        8.1730985952   -1.7301797199    0.4639076156
H        3.9411989889   -2.5450942020   -2.0126657745
H        6.0074484009   -1.5987516479    1.6487047026
H       -0.1172695497   -1.0803090828    0.5250650195
H        1.0753713163   -0.5805740358    1.7646025408
H        0.6992945835   -2.3302301416    1.5121406345
H        3.6392450099   -1.2926115931    1.5346365415
H        3.2482297586   -2.9743318022    1.1016448432
21   
Generated by ForceBalance from scan.xyz: Frame 11 of 24
C        7.3370844343   -2.2908188749   -1.4637933886
C        6.1520731735   -2.3588379635   -2.2001544397
C        7.2788932050   -2.0714714470   -0.0835223925
C        4.9113160580   -2.2143394261   -1.5705373538
C        6.0419395227   -1.9199262034    0.5459671247
C        4.8475559287   -1.9973140216   -0.1878898502
C        0.7937754432   -1.3229606719    0.8626943286
C        3.5551209908   -1.8302485193    0.5880861796
O        1.7423504786   -2.7077048489   -1.1962706392
O        2.2156508960   -0.2002161077   -1.0846080320
S        2.0641534371   -1.5010829519   -0.4145282576
H        8.2975176066   -2.4040340345   -1.9597278705
H        6.1872938135   -2.5250950950   -3.2735224454
H        8.1929990636   -2.0112823576    0.5013546673
H        4.0056202613   -2.2843488394   -2.1621014328
H        6.0053715240   -1.7389652064    1.6185706654
H       -0.1357696940   -1.1295951045    0.3238414171
H        1.0408950167   -0.4760322778    1.5046254903
H        0.7154511935   -2.2523095745    1.4289476811
H        3.6314137089   -0.9908415560    1.2850492040
H        3.3175896442   -2.7367587511    1.1556429904
21   
Generated by ForceBalance from scan.xyz: Frame 12 of 24
C        7.3411281933   -2.3296954929   -1.4601971652
C        6.1689315621   -2.2531847645   -2.2152865153
C        7.2721677781   -2.2075343792   -0.0681416778
C        4.9309020894   -2.0561201969   -1.5937626254
C        6.0381598231   -2.0109107854    0.5538463110
C        4.8565302679   -1.9332444032   -0.2008460558
C        0.7866895251   -1.3613339897    0.8527845949
C        3.5691557332   -1.7179543712    0.5733039799
O        1.7928970476   -2.9322850065   -1.0416518827
O        2.0946479920   -0.4055765460   -1.2551194344
S        2.0435278692   -1.6196817731   -0.4241782818
H        8.2993798281   -2.4828805872   -1.9495539452
H        6.2113780558   -2.3467569055   -3.2971286027
H        8.1760303998   -2.2650251633    0.5327092088
H        4.0379332959   -2.0005642638   -2.2052727878
H        5.9930490925   -1.9169068571    1.6373413250
H       -0.1610450979   -1.2824555434    0.3167345329
H        0.9965203661   -0.4329846549    1.3863088052
H        0.7701864577   -2.2207533265    1.5247710576
H        3.6077563960   -0.7785930958    1.1340620093
H        3.3997907505   -2.5388419969    1.2774713470
21   
Generated by ForceBalance from scan.xyz: Frame 13 of 24
C        7.3285297642   -2.3702096492   -1.4579422362
C        6.1778116125   -2.1478268832   -2.2178159920
C        7.2462337182   -2.3442722978   -0.0618055611
C        4.9501935227   -1.8961316009   -1.5961318778
C        6.0203560704   -2.1001884435    0.5603260569
C        4.8624255325   -1.8660678596   -0.1981838298
C        0.7834104745   -1.4026834783    0.8695426780
C        3.5814465411   -1.6003537048    0.5694612288
O        1.8688357834   -3.1213406124   -0.8457932619
O        1.9879760902   -0.6235572526   -1.3661691223
S        2.0359733701   -1.7308450118   -0.3954716254
H        8.2793512142   -2.5651984194   -1.9469576124
H        6.2297561084   -2.1696043953   -3.3031009578
H        8.1320966330   -2.5204765546    0.5427414999
H        4.0747027999   -1.7136401551   -2.2087299329
H        5.9636342704   -2.0924290259    1.6471791806
H       -0.1753718296   -1.4526183928    0.3498782749
H        0.9371691914   -0.4045037455    1.2824404937
H        0.8356069698   -2.1732601247    1.6401906945
H        3.5721533145   -0.5840248943    0.9784662597
H        3.4735419214   -2.3105532981    1.3941829007
21   
Generated by ForceBalance from scan.xyz: Frame 14 of 24
C        7.3207922334   -2.4243072869   -1.4446183478
C        6.2026039042   -2.0627522029   -2.2013226773
C        7.2204401760   -2.4841046001   -0.0513866322
C        4.9903764194   -1.7538212897   -1.5777361560
C        6.0070189261   -2.1860696424    0.5734399837
C        4.8862796940   -1.8052702219   -0.1798638967
C        0.8040538809   -1.4655399955    0.8987002778
C        3.6104918866   -1.4867693279    0.5708406081
O        2.0026224977   -3.3041181260   -0.6056352129
O        1.9234268522   -0.8901527675   -1.4389689441
S        2.0662808927   -1.8596527474   -0.3377628468
H        8.2603714450   -2.6632228335   -1.9358956382
H        6.2696726915   -2.0212185607   -3.2852436418
H        8.0797564715   -2.7723769882    0.5483775789
H        4.1365036884   -1.4629342221   -2.1800606365
H        5.9322069458   -2.2520183896    1.6569413479
H       -0.1539511627   -1.6271312570    0.4007910714
H        0.9018537282   -0.4204444671    1.1968350859
H        0.9069460038   -2.1413135875    1.7490216385
H        3.5403619267   -0.4185128705    0.8056222134
H        3.5555523071   -2.0565296423    1.5018543703
21   
Generated by ForceBalance from scan.xyz: Frame 15 of 24
C        7.2953021742   -2.4384668463   -1.4622338670
C        6.2299038387   -1.9210568854   -2.2062766366
C        7.1551425653   -2.6093357553   -0.0821456486
C        5.0330654773   -1.5655324506   -1.5800027005
C        5.9546792673   -2.2647138221    0.5450567551
C        4.8908469995   -1.7259814730   -0.1924471384
C        0.8063817941   -1.4646221010    0.8654479223
C        3.6170356893   -1.3654520981    0.5340756338
O        2.1200779791   -3.4209157556   -0.3715404741
O        1.9034451922   -1.1530294222   -1.5314296336
S        2.0965443401   -1.9522026296   -0.3077067363
H        8.2244434224   -2.7124935621   -1.9551098804
H        6.3279258398   -1.7957190216   -3.2813672245
H        7.9726341606   -3.0194620752    0.5049353963
H        4.2117914147   -1.1667113729   -2.1664410176
H        5.8458939066   -2.4174954295    1.6165397476
H       -0.1390097072   -1.7450538587    0.3970843400
H        0.8448730284   -0.3848830741    1.0184529747
H        0.9422989539   -2.0113869230    1.7997686862
H        3.4847580767   -0.2808983225    0.6157776363
H        3.5977431554   -1.8039950165    1.5345372731
21   
Generated by ForceBalance from scan.xyz: Frame 16 of 24
C        7.2666215004   -2.4540083250   -1.4794993144
C        6.2663325792   -1.7850638892   -2.1937950128
C        7.0800961702   -2.7364621210   -0.1233654624
C        5.0880189477   -1.3905848252   -1.5572482270
C        5.8977228355   -2.3491064303    0.5134342647
C        4.9015969868   -1.6604881303   -0.1917565307
C        0.8173644341   -1.4974759121    0.8408186171
C        3.6300288527   -1.2686783303    0.5122331970
O        2.2768543754   -3.5297965851   -0.0651497004
O        1.9356128724   -1.4885875589   -1.5679809209
S        2.1560994914   -2.0739312628   -0.2335430401
H        8.1827905037   -2.7583808281   -1.9788524596
H        6.4015468385   -1.5739578163   -3.2512536030
H        7.8477893046   -3.2639674455    0.4364832028
H        4.3073830593   -0.8865421240   -2.1183507559
H        5.7485983492   -2.5863416494    1.5641904684
H       -0.1002349187   -1.9156508078    0.4225195024
H        0.7789465702   -0.4071703425    0.8178074822
H        0.9783168889   -1.8755248452    1.8515900902
H        3.4294166613   -0.1948978841    0.4399452481
H        3.6425716176   -1.5673150098    1.5628890739
21   
Generated by ForceBalance from scan.xyz: Frame 17 of 24
C        7.2326172214   -2.4727697822   -1.4958835603
C        6.3100864999   -1.6627675020   -2.1675399541
C        6.9839762323   -2.8636555757   -0.1765348760
C        5.1471154982   -1.2385534479   -1.5220133416
C        5.8187001039   -2.4423960914    0.4691390012
C        4.9002769177   -1.6169410860   -0.1934379535
C        0.8235259065   -1.5245943654    0.8365391891
C        3.6332099367   -1.1970302146    0.4938901388
O        2.4116677143   -3.5897981183    0.2966953672
O        1.9870398861   -1.8502247235   -1.5314819374
S        2.2111479067   -2.1919873336   -0.1163752247
H        8.1377100738   -2.8013778035   -2.0000870308
H        6.4939648763   -1.3659516570   -3.1966476643
H        7.6922132669   -3.5001088135    0.3471776942
H        4.4212431639   -0.6276847326   -2.0508082441
H        5.6176524898   -2.7622316756    1.4885414358
H       -0.0575043099   -2.0811686579    0.5112092871
H        0.7057583748   -0.4641477508    0.6080094079
H        1.0036442791   -1.6916306941    1.8997341374
H        3.3698067985   -0.1561182378    0.2857600198
H        3.6768820255   -1.3597576773    1.5732166299
21   
Generated by ForceBalance from scan.xyz: Frame 18 of 24
C        7.2271138441   -2.4767444148   -1.4971719370
C        6.3941144364   -1.5542265999   -2.1391043740
C        6.8849556955   -2.9588470566   -0.2292411063
C        5.2266628613   -1.1109638301   -1.5136050895
C        5.7178437091   -2.5157822730    0.3968911004
C        4.8865256766   -1.5819209935   -0.2376944125
C        0.8310152268   -1.5470746775    0.8629104762
C        3.6177953335   -1.1279791885    0.4222169031
O        2.5241828733   -3.5794572430    0.5828155290
O        1.9826840768   -2.1367474144   -1.4614056626
S        2.2407089828   -2.2655384068   -0.0178371226
H        8.1357021805   -2.8213349679   -1.9841331909
H        6.6510439037   -1.1837571695   -3.1278737999
H        7.5240468542   -3.6825519083    0.2695171117
H        4.5698331709   -0.4091609952   -2.0207089262
H        5.4419426061   -2.9051866143    1.3731973178
H       -0.0231550869   -2.1872325142    0.6339622959
H        0.6538074229   -0.5354316128    0.4942727761
H        1.0334275513   -1.5570022762    1.9351246114
H        3.3062363368   -0.1356869572    0.0868965309
H        3.6852283427   -1.1493059952    1.5128008992
21   
Generated by ForceBalance from scan.xyz: Frame 19 of 24
C        7.2485559798   -2.4649065189   -1.4873163064
C        6.4978026107   -1.4563367873   -2.0990281329
C        6.8051401296   -3.0325142365   -0.2874421147
C        5.3085529861   -1.0169283417   -1.5114164452
C        5.6188855304   -2.5915199744    0.3020000915
C        4.8625643251   -1.5789728585   -0.3079069610
C        0.8324620656   -1.5498083688    0.9001746337
C        3.5857526448   -1.0988888841    0.3207342062
O        2.5892796613   -3.5437808123    0.8329053042
O        1.9384309781   -2.4040265784   -1.3639747840
S        2.2421043749   -2.3300686580    0.0737364387
H        8.1733719468   -2.8084064223   -1.9435018749
H        6.8351268016   -1.0140761940   -3.0326141557
H        7.3828774433   -3.8203472814    0.1885215711
H        4.7188747723   -0.2422299992   -1.9952380708
H        5.2664266392   -3.0439049302    1.2243407062
H       -0.0015365395   -2.2454570287    0.7890060133
H        0.6033897826   -0.6044494384    0.4056528375
H        1.0669058707   -1.4073747912    1.9563012960
H        3.2317964897   -0.1679396180   -0.1278394634
H        3.6744379580   -0.9789284535    1.4041681214
21   
Generated by ForceBalance from scan.xyz: Frame 20 of 24
C        7.2885900243   -2.4304039986   -1.4822161990
C        6.5971323246   -1.3499889693   -2.0373079757
C        6.7588497313   -3.0979953605   -0.3721513560
C        5.3796252461   -0.9431822138   -1.4840487602
C        5.5466221618   -2.6877994486    0.1858779775
C        4.8430203315   -1.6093844437   -0.3743832341
C        0.8301349779   -1.5431449879    0.9190494036
C        3.5568355878   -1.1208494174    0.2366901351
O        2.6292462887   -3.4866280135    1.1211633411
O        1.9238378904   -2.7060357929   -1.2101037652
S        2.2461203097   -2.4075062717    0.1933959898
H        8.2342900358   -2.7509726729   -1.9114416916
H        7.0015104964   -0.8255757794   -2.8990115368
H        7.2920254255   -3.9396485691    0.0619326165
H        4.8397141024   -0.1082110661   -1.9244218161
H        5.1338881423   -3.2131449425    1.0415018504
H        0.0198950972   -2.2741274893    0.9509315029
H        0.5552101377   -0.7023467442    0.2802872448
H        1.0839024327   -1.2178666013    1.9292761631
H        3.1562324324   -0.2589886061   -0.3017462665
H        3.6731877350   -0.8699759470    1.2956287328
21   
Generated by ForceBalance from scan.xyz: Frame 21 of 24
C        7.3189790031   -2.4028758406   -1.4764103018
C        6.6804185560   -1.2585899624   -1.9622138382
C        6.7105559852   -3.1591631840   -0.4689728026
C        5.4382058227   -0.8798605394   -1.4451833289
C        5.4741993574   -2.7771030363    0.0563136405
C        4.8203271579   -1.6383764958   -0.4413403280
C        0.8278918284   -1.5213959455    0.9419280802
C        3.5218669419   -1.1423225628    0.1474669347
O        2.6751650460   -3.3736987048    1.3923598754
O        1.9097889343   -2.9678657567   -1.0130508448
S        2.2508299639   -2.4534651089    0.3215508215
H        8.2830173101   -2.7029506645   -1.8787863007
H        7.1446279559   -0.6620264678   -2.7430883589
H        7.2024269857   -4.0490725406   -0.0851920518
H        4.9425189427    0.0069802997   -1.8338648938
H        5.0117971340   -3.3662534966    0.8416329093
H        0.0427153262   -2.2603141757    1.1130171427
H        0.5109067884   -0.8008517727    0.1864601992
H        1.0959030664   -1.0330522114    1.8802714941
H        3.0738312760   -0.3669917003   -0.4785582566
H        3.6604915934   -0.7518997886    1.1612979028
21   
Generated by ForceBalance from scan.xyz: Frame 22 of 24
C        7.3419710241   -2.3861340298   -1.4617250739
C        6.7561492087   -1.1831736566   -1.8666544152
C        6.6601971946   -3.2165083968   -0.5672881688
C        5.4952935750   -0.8223955103   -1.3846303298
C        5.4037598079   -2.8534417452   -0.0746406064
C        4.8030735800   -1.6571365613   -0.4949003748
C        0.8245020581   -1.5094073136    0.9492303206
C        3.4848437980   -1.1587572870    0.0569514416
O        2.7473680779   -3.2028483275    1.6431133867
O        1.9352901538   -3.2005786980   -0.7795944204
S        2.2741518685   -2.4733389756    0.4527112728
H        8.3202239090   -2.6727979103   -1.8387305017
H        7.2762944697   -0.5266811367   -2.5592192115
H        7.1094393153   -4.1516772727   -0.2436228248
H        5.0431096272    0.1115711230   -1.7120458507
H        4.8972027857   -3.4994205923    0.6344576426
H        0.0697115396   -2.2432104554    1.2384038866
H        0.4734254672   -0.9203294457    0.1006629118
H        1.0827155046   -0.8789656958    1.8016357655
H        2.9879211363   -0.4968630870   -0.6570153574
H        3.6280724641   -0.6204069560    1.0004040543
21   
Generated by ForceBalance from scan.xyz: Frame 23 of 24
C        7.3460442000   -2.3760885411   -1.4440977805
C        6.8149154100   -1.1209486963   -1.7584604786
C        6.5953463787   -3.2666649888   -0.6728556623
C        5.5414135837   -0.7697262483   -1.3062339426
C        5.3225503316   -2.9139501929   -0.2124946175
C        4.7801984225   -1.6630915277   -0.5360910256
C        0.8195776110   -1.4861218693    0.9691030601
C        3.4355576757   -1.1678957557   -0.0398147271
O        2.8280753123   -2.9864755041    1.8472222632
O        1.9609852533   -3.3682797207   -0.5248079295
S        2.2973893747   -2.4560749464    0.5791844752
H        8.3352051216   -2.6558449896   -1.7969555230
H        7.3880820526   -0.4171359254   -2.3562972260
H        7.0003094710   -4.2431581168   -0.4209206576
H        5.1331651278    0.2066244835   -1.5604477211
H        4.7672676120   -3.6157740097    0.3993457038
H        0.1066580956   -2.1976123687    1.3901714692
H        0.4210733675   -1.0486979962    0.0525024442
H        1.0702955828   -0.7228186655    1.7074728406
H        2.8931975326   -0.6548010004   -0.8392169412
H        3.5606950873   -0.4761286303    0.8002436848
21   
Generated by ForceBalance from scan.xyz: Frame 24 of 24
C        7.3483691338   -2.3759919027   -1.4061539269
C        6.8600381899   -1.0841414408   -1.6300296758
C        6.5387526078   -3.3143589180   -0.7626684559
C        5.5730726138   -0.7434253418   -1.2105507557
C        5.2483544668   -2.9748523642   -0.3414197563
C        4.7549795929   -1.6832303268   -0.5629967762
C        0.8178799477   -1.4934438797    1.0064228553
C        3.3740069504   -1.2101968527   -0.1481943096
O        2.9268816701   -2.7752583305    1.9944199050
O        1.9901022228   -3.5142528310   -0.2632583131
S        2.3251305581   -2.4454953858    0.6920383868
H        8.3497067251   -2.6466561220   -1.7305722581
H        7.4784946736   -0.3430992847   -2.1296978031
H        6.9084202556   -4.3204988329   -0.5838799368
H        5.2004899150    0.2637016628   -1.3886066452
H        4.6427245880   -3.7237964082    0.1553057341
H        0.1440693273   -2.1779241055    1.5253007320
H        0.3812591854   -1.1811017170    0.0565594326
H        1.0536839389   -0.6404611080    1.6446510480
H        2.7970119027   -0.8892244111   -1.0213856683
H        3.4465771306   -0.3708051509    0.5507254790
