19   
Generated by ForceBalance from scan.xyz: Frame 1 of 7
C        1.9912403820   -0.9701484863   -0.1479723410
C        0.8746058383   -0.4188150940    0.4923577322
C        3.0016394045   -1.5591931801    0.6093451406
C        0.7982064275   -0.4770157321    1.8874237394
C        2.9247673328   -1.6466323925    2.0171802523
C        1.7967268021   -1.0791282190    2.6688095615
C        4.0706063297   -2.2365338503    2.7322795377
C        1.6284971740   -1.1083168973    4.1702683084
N        5.0264868811   -2.9460120642    2.0675970776
N        4.0059294806   -2.7468877387    3.9931125121
N        6.0034859923   -2.9731877109    3.0047046358
N        5.3475728630   -3.0305384378    4.2054569861
H        2.0773555460   -0.9313349091   -1.2327734750
H        0.0811068900    0.0564109455   -0.0816270974
H        3.8855874711   -1.9751450296    0.1354266656
H       -0.0650173797   -0.0437770193    2.3916546053
H        1.5137610009   -2.1321082837    4.5368750801
H        2.5162617815   -0.7226597854    4.6794883557
H        0.7523955746   -0.5186457850    4.4660928991
19   
Generated by ForceBalance from scan.xyz: Frame 2 of 7
C        1.9855557140   -0.9667264468   -0.1405216770
C        0.8658006981   -0.4228208687    0.5004275121
C        2.9985850213   -1.5530665381    0.6152176347
C        0.7905767323   -0.4833547222    1.8950403850
C        2.9262399265   -1.6361843589    2.0235654660
C        1.7945908215   -1.0777783573    2.6759628068
C        4.0643513199   -2.2400607939    2.7337113637
C        1.6281943154   -1.1038290160    4.1774368258
N        5.0729496748   -2.8633780752    2.0713786823
N        4.0450184256   -2.6782373630    4.0206350554
N        5.9787122006   -3.0841613561    3.0442091064
N        5.3243474855   -3.0866018940    4.2226690290
H        2.0707946720   -0.9279240035   -1.2253488307
H        0.0680498814    0.0460237461   -0.0728697896
H        3.8807613662   -1.9686031266    0.1380763660
H       -0.0752384917   -0.0567424009    2.4003548414
H        1.5430206366   -2.1283330397    4.5499820112
H        2.5054320684   -0.6910083438    4.6834571567
H        0.7366104099   -0.5364618570    4.4705637303
19   
Generated by ForceBalance from scan.xyz: Frame 3 of 7
C        1.9793554476   -0.9635668262   -0.1301474318
C        0.8592431685   -0.4201662840    0.5102915725
C        2.9903040786   -1.5529066420    0.6260258209
C        0.7830481735   -0.4832192052    1.9045088909
C        2.9213672118   -1.6315325226    2.0348836201
C        1.7876949149   -1.0762119087    2.6861418386
C        4.0487087049   -2.2567620222    2.7409997185
C        1.6200477942   -1.1002254635    4.1872725911
N        5.1003130576   -2.8062488195    2.0852149410
N        4.0853364848   -2.5859115661    4.0552458613
N        5.9419475386   -3.1819673683    3.0605931249
N        5.3134312466   -3.1052195738    4.2384836794
H        2.0651891847   -0.9253392649   -1.2149309495
H        0.0608496928    0.0474404164   -0.0631070666
H        3.8691710987   -1.9735343418    0.1475875976
H       -0.0839073476   -0.0588781328    2.4096852585
H        1.5687561175   -2.1250699121    4.5652980976
H        2.4826443150   -0.6563658826    4.6919330483
H        0.7100564191   -0.5606472091    4.4761429387
19   
Generated by ForceBalance from scan.xyz: Frame 4 of 7
C        1.9506931734   -0.9522670822   -0.1146008095
C        0.8373221171   -0.4023093067    0.5317299245
C        2.9555574807   -1.5597559915    0.6353107659
C        0.7616945480   -0.4774946743    1.9253360910
C        2.8916295970   -1.6425405737    2.0441498216
C        1.7623374728   -1.0848666250    2.7011105520
C        4.0043820083   -2.3039882436    2.7399327019
C        1.5950489012   -1.1194116700    4.2019764885
N        5.0661319964   -2.8245200737    2.0800032461
N        4.1252758119   -2.4810476822    4.0758299575
N        5.8531806263   -3.3312713038    3.0390340782
N        5.2928152675   -3.1270922637    4.2329208226
H        2.0349718815   -0.9075905202   -1.1992462597
H        0.0420026042    0.0764165985   -0.0367316414
H        3.8259981667   -1.9914976996    0.1514879125
H       -0.1019106265   -0.0515835442    2.4348649607
H        1.6043898807   -2.1454148415    4.5801823755
H        2.4295852295   -0.6253745575    4.7072161086
H        0.6551983488   -0.6333078362    4.4901258218
19   
Generated by ForceBalance from scan.xyz: Frame 5 of 7
C        1.9771154572   -0.9681630936   -0.1307208427
C        0.8658980508   -0.4083464489    0.5110746803
C        2.9696837654   -1.5913759577    0.6226399242
C        0.7797558776   -0.4897420420    1.9037630741
C        2.8994727304   -1.6723146700    2.0313060660
C        1.7701357267   -1.1090005252    2.6832319684
C        3.9892167851   -2.3668549157    2.7316542516
C        1.5938911043   -1.1488275557    4.1830424137
N        5.0689781432   -2.8644471186    2.0802045239
N        4.1923800805   -2.3889441660    4.0714901399
N        5.7755025969   -3.4892634896    3.0348288885
N        5.2853614337   -3.1573664534    4.2339775309
H        2.0677224132   -0.9211583274   -1.2147713233
H        0.0785469169    0.0796148437   -0.0606312750
H        3.8351138703   -2.0367903559    0.1421445147
H       -0.0841098848   -0.0596925520    2.4094044719
H        1.6615890301   -2.1710578805    4.5654350221
H        2.3937435738   -0.6038150504    4.6920041485
H        0.6253144959   -0.7172934808    4.4628876846
19   
Generated by ForceBalance from scan.xyz: Frame 6 of 7
C        1.9838430696   -0.9703082872   -0.1410301632
C        0.8723493693   -0.4111184633    0.5011451555
C        2.9750992252   -1.5968088593    0.6113537695
C        0.7846515163   -0.4947432145    1.8938342795
C        2.9068337624   -1.6724411433    2.0203263524
C        1.7759444232   -1.1126067607    2.6728173311
C        3.9843883042   -2.3879604895    2.7211751658
C        1.6020623168   -1.1524120420    4.1731404272
N        5.1026150146   -2.8091881702    2.0757024024
N        4.2496860020   -2.3013523706    4.0518439358
N        5.7152832386   -3.5703792381    3.0034947625
N        5.2769728352   -3.1744463184    4.2151442908
H        2.0736505238   -0.9231180074   -1.2251554959
H        0.0843068974    0.0756234468   -0.0706632697
H        3.8380009118   -2.0478800643    0.1312417540
H       -0.0804855621   -0.0668882109    2.3992589264
H        1.7034587632   -2.1703550805    4.5598359802
H        2.3835012260   -0.5787194027    4.6789923581
H        0.6201530781   -0.7516066087    4.4523554377
19   
Generated by ForceBalance from scan.xyz: Frame 7 of 7
C        1.9903419083   -0.9722810379   -0.1483846017
C        0.8744264790   -0.4196187128    0.4920540481
C        2.9822914604   -1.5953253433    0.6061091703
C        0.7840650876   -0.5035367604    1.8849740150
C        2.9151656595   -1.6647830261    2.0154436574
C        1.7787316937   -1.1127469291    2.6657732285
C        3.9849688643   -2.3948639156    2.7188627735
C        1.6064802251   -1.1493364229    4.1666139179
N        5.1463366502   -2.7254825290    2.0857872565
N        4.2873425389   -2.2284215457    4.0361374068
N        5.6390639490   -3.6455191017    2.9484477548
N        5.2440501675   -3.2217949279    4.1893140607
H        2.0806068201   -0.9258300290   -1.2325481568
H        0.0834401214    0.0602330481   -0.0815499646
H        3.8462929037   -2.0480612863    0.1291293694
H       -0.0851040655   -0.0812529958    2.3882844940
H        1.7359778752   -2.1618869944    4.5592115990
H        2.3716015911   -0.5507007241    4.6685496109
H        0.6143134353   -0.7736813225    4.4445821662
