18   

C        4.6331489468    1.3459722668    0.7538183146
C        5.8139907285    1.1162717057    0.0578439335
C        3.5008874128    0.5758692131    0.4819786556
C        5.8525191881    0.1176163928   -0.9129831492
C        3.5148812075   -0.4449182471   -0.4880718959
C        4.7243040941   -0.6614946962   -1.1988640494
C        2.2836726517   -1.2595635898   -0.7409971179
C        0.9255131980   -0.7892422535   -0.2311503423
O        2.3102354744   -2.3131859061   -1.3628699842
O        4.8394502806   -1.6001087680   -2.1827803911
H        4.5933087676    2.1217186226    1.5103739364
H        6.6964254031    1.7112887744    0.2677202579
H        2.6063407859    0.7855760663    1.0569106716
H        6.7762154556   -0.0470308500   -1.4536462632
H        0.7670969574    0.2586429597   -0.4992965705
H        0.8758648027   -0.9036686267    0.8547637040
H        0.1296915422   -1.3874177607   -0.6844090755
H        5.7506974101   -1.6457513843   -2.5119243508
18   

C        4.6560720123    1.3455002997    0.7980864654
C        5.8087066661    1.1619622170    0.0407734968
C        3.5350944513    0.5453601376    0.5677991315
C        5.8294911603    0.1814568473   -0.9507643397
C        3.5390812337   -0.4554416673   -0.4197620245
C        4.7108292038   -0.6248425265   -1.1941939028
C        2.3294741382   -1.3189268933   -0.6179731070
C        0.9406437340   -0.7750286276   -0.3057239409
O        2.4123600260   -2.4711546229   -1.0185709282
O        4.7846255895   -1.5399451217   -2.2039743519
H        4.6309738124    2.1060787167    1.5704842531
H        6.6827894729    1.7791406946    0.2191879741
H        2.6587921125    0.7057303778    1.1858787797
H        6.7286194715    0.0543170118   -1.5406949290
H        0.8585710103    0.2596012363   -0.6492616143
H        0.7583992857   -0.8184454791    0.7710679424
H        0.1829331154   -1.3739968184   -0.8189723515
H        5.6888867347   -1.5978304172   -2.5507690133
18   

C        4.7236058900    1.2900806295    0.8579609342
C        5.8289615228    1.1403999874    0.0240819552
C        3.5968832321    0.4855203685    0.6732469358
C        5.7968165855    0.1891053601   -0.9967346998
C        3.5526894013   -0.4797736068   -0.3443829146
C        4.6707240769   -0.6193333300   -1.1921514818
C        2.3474367075   -1.3659700565   -0.4960315700
C        0.9502040506   -0.7750503942   -0.3656893814
O        2.4567350047   -2.5681761037   -0.6810882383
O        4.6741182588   -1.5111449453   -2.2252946485
H        4.7408016648    2.0260546518    1.6540197307
H        6.7074983593    1.7604684516    0.1669972886
H        2.7546132345    0.6093642420    1.3450197732
H        6.6581162600    0.0867101277   -1.6450194464
H        0.8937597269    0.1644800999   -0.9218803148
H        0.7197861610   -0.5888423215    0.6860969097
H        0.2119787246   -1.4706906196   -0.7747284782
H        5.5609875705   -1.5831983358   -2.6129036599
18   

C        4.7769615826    1.2316690581    0.9525418094
C        5.8308166145    1.1371717443    0.0451625529
C        3.6523811039    0.4162228940    0.8024124374
C        5.7505627637    0.2283879062   -1.0123179433
C        3.5638512259   -0.4991184923   -0.2538192506
C        4.6258029052   -0.5893716219   -1.1706774947
C        2.3643005783   -1.4049516050   -0.3769963154
C        0.9631906432   -0.8087623477   -0.4041808948
O        2.4840695210   -2.6188476484   -0.3551165292
O        4.5692326115   -1.4487953090   -2.2294476033
H        4.8335867772    1.9317161400    1.7785918134
H        6.7073851445    1.7655606147    0.1612313021
H        2.8511565410    0.4895706493    1.5296132249
H        6.5719454582    0.1659713740   -1.7151801355
H        0.7939804184   -0.3288136362   -1.3717157078
H        0.8460019579   -0.0657391196    0.3877127855
H        0.2178471928   -1.5966132497   -0.2633203412
H        5.4326239774   -1.5044314398   -2.6700831771
18   

C        4.8386256976    1.1837746272    1.0318077269
C        5.8391247888    1.1234480363    0.0622275826
C        3.7104653072    0.3667376636    0.9204153735
C        5.7020285594    0.2466483445   -1.0169377589
C        3.5680907327   -0.5143591444   -0.1557819405
C        4.5729332743   -0.5718902024   -1.1338143918
C        2.3581691156   -1.4159331338   -0.2556184048
C        0.9906648957   -0.8060595590   -0.5242995681
O        2.4380934431   -2.6069932263   -0.0090216900
O        4.4535331524   -1.4055748440   -2.2079335290
H        4.9388034948    1.8590087305    1.8741959442
H        6.7180227886    1.7535687526    0.1470482425
H        2.9441390831    0.4108631803    1.6870672382
H        6.4818007166    0.2098620176   -1.7673926130
H        0.9020945667   -0.5743584231   -1.5889995583
H        0.8687356792    0.1144998028    0.0517294824
H        0.2026521591   -1.5106233433   -0.2442693800
H        5.2844429021   -1.4338337747   -2.7101018405
18   

C        4.9142367034    1.1369593539    1.1193395887
C        5.8512057017    1.1056344863    0.0868138935
C        3.7790521339    0.3245279131    1.0545416343
C        5.6429453509    0.2631491164   -1.0082885851
C        3.5701342767   -0.5278990587   -0.0328433599
C        4.5065762278   -0.5506181626   -1.0771577061
C        2.3326806703   -1.3957109205   -0.1114142168
C        1.0784388000   -0.8460175606   -0.7723226939
O        2.3184521221   -2.5209620057    0.3569035494
O        4.3134659205   -1.3497971174   -2.1669314137
H        5.0674404451    1.7880054442    1.9727147778
H        6.7346538360    1.7333023895    0.1344139614
H        3.0568450250    0.3492429563    1.8638800375
H        6.3722998260    0.2506651096   -1.8085872139
H        1.2780016143   -0.6567841263   -1.8303913305
H        0.7866770204    0.0903317090   -0.2900623955
H        0.2598392867   -1.5659196830   -0.6856071903
H        5.1000016278   -1.3407318078   -2.7372607765
18   

C        4.9701236743    1.0775134616    1.1664757206
C        5.8557072104    1.0796483478    0.0891756737
C        3.8243295764    0.2788919426    1.1243309099
C        5.5867961282    0.2831553725   -1.0270885009
C        3.5543983572   -0.5279086104    0.0145702431
C        4.4399970980   -0.5176555149   -1.0743652876
C        2.2910481144   -1.3567723676   -0.0306313630
C        1.1372970115   -0.9255125064   -0.9244366752
O        2.1822206524   -2.3746476185    0.6332516641
O        4.1962937956   -1.2792286665   -2.1808200937
H        5.1704861138    1.6926067440    2.0365915257
H        6.7469361768    1.6973334652    0.1191520323
H        3.1399478023    0.2782805026    1.9664977533
H        6.2787043809    0.2955178294   -1.8599787262
H        1.4640939599   -0.9008004708   -1.9669947885
H        0.8001097968    0.0722172757   -0.6322962979
H        0.3044951344   -1.6277964370   -0.8292815401
H        4.9509529811   -1.2383922717   -2.7917704486
18   

C        5.0275438917    1.0331201692    1.1988495904
C        5.8693797028    1.0699347520    0.0873065962
C        3.8679040532    0.2546136141    1.1683375815
C        5.5444625975    0.3277478795   -1.0519108166
C        3.5428392847   -0.4978245275    0.0325380724
C        4.3838304410   -0.4537562113   -1.0906134437
C        2.2553888184   -1.2841796603    0.0325155930
C        1.1591130373   -0.9687913181   -0.9756946770
O        2.0621335897   -2.1526924064    0.8700791312
O        4.0927668778   -1.1675913911   -2.2168892082
H        5.2720953315    1.6059342298    2.0863599109
H        6.7711739396    1.6724442727    0.1090975184
H        3.2161624215    0.2267322646    2.0359150313
H        6.2053684872    0.3665630157   -1.9088114663
H        1.4157840456   -1.3922637205   -1.9496847360
H        1.0486532998    0.1141994572   -1.0734580781
H        0.2091335328   -1.3948460306   -0.6416950825
H        4.8195655967   -1.0957419643   -2.8582405253
18   

C        5.0238361787    0.8999920876    1.2659797301
C        5.8416194122    0.9702154483    0.1386765683
C        3.8345499052    0.1689903836    1.2190311664
C        5.4646539467    0.3073213778   -1.0328081927
C        3.4536816969   -0.5034781805    0.0479737210
C        4.2747115524   -0.4279478358   -1.0907943875
C        2.1348636819   -1.2265628262    0.0548249545
C        1.1353180407   -1.0626736521   -1.0823056466
O        1.8274942007   -1.9241431991    1.0129604984
O        3.9434472756   -1.0671394670   -2.2504000016
H        5.3089641496    1.4111590117    2.1786759011
H        6.7657755727    1.5371829787    0.1735389548
H        3.2018534926    0.1189402375    2.0999340624
H        6.1098013376    0.3710749050   -1.9001601358
H        1.3051684790   -1.8365743979   -1.8352861518
H        1.2542596697   -0.0793811644   -1.5448703038
H        0.1156783087   -1.1523490819   -0.6980624446
H        4.6519625534   -0.9606613523   -2.9073074280
18   

C        5.0770859077    0.8538707926    1.2798328156
C        5.8709490606    0.9418144516    0.1379458875
C        3.8596999682    0.1714424311    1.2314795050
C        5.4437161449    0.3423581867   -1.0495379796
C        3.4201689122   -0.4326382186    0.0407205300
C        4.2257620037   -0.3456371108   -1.1122392401
C        2.0824425880   -1.1168180306    0.0737127527
C        1.1450248488   -1.1282069652   -1.1274520365
O        1.6868705618   -1.6163858788    1.1214236485
O        3.8643381334   -0.9313094150   -2.2907166091
H        5.4021335450    1.3140637252    2.2062138942
H        6.8168007265    1.4716841696    0.1745174501
H        3.2517159220    0.1132797668    2.1292577671
H        6.0745882100    0.4160724999   -1.9265513965
H        1.3817880802   -1.9792816087   -1.7712182574
H        1.2539718176   -0.2015536001   -1.6969047189
H        0.1083069482   -1.2131502726   -0.7905182657
H        4.5637841780   -0.8096121886   -2.9547052227
18   

C        5.0830098248    0.7998025564    1.3193374831
C        5.8609611705    0.8893163926    0.1682669947
C        3.8307047940    0.1846207058    1.2692036549
C        5.3831669233    0.3571649662   -1.0306945100
C        3.3329246644   -0.3496816010    0.0655402595
C        4.1299666108   -0.2644105455   -1.0982630958
C        1.9669680649   -0.9783938683    0.1183463243
C        1.1066665287   -1.2078730445   -1.1190034481
O        1.4736853313   -1.2520117208    1.2086311714
O        3.7350380232   -0.7845955062   -2.2960990458
H        5.4471614705    1.2072293549    2.2558396435
H        6.8338620157    1.3675768481    0.2066521079
H        3.2452422530    0.1312731090    2.1820301252
H        6.0042437955    0.4300996654   -1.9147457241
H        1.4613436694   -2.0904137510   -1.6576421534
H        1.1513420306   -0.3346741629   -1.7748360021
H        0.0656043640   -1.3687664903   -0.8255543535
H        4.4289761736   -0.6537204971   -2.9640897284
18   

C        5.1368197604    0.7417162936    1.3248051795
C        5.9095594484    0.8403127845    0.1720257088
C        3.8570325086    0.1876727448    1.2623507863
C        5.3966425016    0.3825852029   -1.0421945176
C        3.3234184494   -0.2794076574    0.0452144916
C        4.1148238330   -0.1761445630   -1.1239601931
C        1.9337491216   -0.8573044862    0.0966843421
C        1.2005330459   -1.4089625115   -1.1209809689
O        1.3396025054   -0.8958518344    1.1707119722
O        3.6851390441   -0.6003468949   -2.3470148952
H        5.5263533593    1.0945460060    2.2731866146
H        6.9041072980    1.2707883896    0.2201115283
H        3.2829163699    0.1269120861    2.1818019839
H        6.0121750617    0.4673545186   -1.9290721755
H        1.7624868514   -2.2430101565   -1.5489830514
H        1.0763610943   -0.6226347176   -1.8699042174
H        0.2104203594   -1.7704838103   -0.8294345018
H        4.3713632750   -0.4426378757   -3.0171390366
18   

C        5.1399416925    0.6652487015    1.3459473772
C        5.9096647326    0.7742045228    0.1910281575
C        3.8354123420    0.1734434769    1.2713793555
C        5.3676157152    0.3938529894   -1.0379942649
C        3.2784060294   -0.2209447857    0.0400085805
C        4.0604104703   -0.1001399738   -1.1308297839
C        1.8700857630   -0.7495810726    0.0729884152
C        1.2736310288   -1.6023569766   -1.0409367601
O        1.1817370469   -0.5623994570    1.0720154821
O        3.5850170126   -0.4302228466   -2.3663127735
H        5.5512227928    0.9613323399    2.3044992253
H        6.9234471976    1.1558851209    0.2485399548
H        3.2594732099    0.0975902517    2.1886606283
H        5.9783431969    0.4912402416   -1.9268869297
H        2.0021429523   -2.3446657200   -1.3768483895
H        0.9848881245   -0.9648485276   -1.8805891620
H        0.3865909075   -2.1271239717   -0.6754385550
H        4.2577059525   -0.2491426327   -3.0442430918
18   

C        4.6333768036    1.9329423765    0.1016787297
C        5.7639059148    1.1271493914   -0.0185696113
C        3.3673870202    1.3994544985   -0.1487914753
C        5.6227471453   -0.2114806370   -0.3929185773
C        3.2150583195    0.0531707736   -0.5233993714
C        4.3596343233   -0.7594388676   -0.6478088055
C        1.8128965991   -0.4423375250   -0.7404684171
C        1.3901683658   -1.8645638139   -0.3936952589
O        0.9522594038    0.3377799710   -1.1334834336
O        4.2780506062   -2.0667810885   -1.0307559273
H        4.7339946719    2.9734951763    0.3893266166
H        6.7477675824    1.5406580966    0.1757536201
H        2.4961276697    2.0397654595   -0.0490806526
H        6.5116931758   -0.8227483986   -0.4862598764
H        1.9515962341   -2.2216958008    0.4735346230
H        1.5804916815   -2.5231804432   -1.2450594320
H        0.3233530296   -1.8887812898   -0.1552789935
H        5.1679977350   -2.4495710965   -1.1106417183
18   

C        4.6038665072    1.9101859830    0.1632565496
C        5.7455798729    1.1228542972    0.0179768250
C        3.3485204632    1.3794519201   -0.1423504704
C        5.6254972670   -0.1946666667   -0.4332675373
C        3.2220406354    0.0596335647   -0.6014095864
C        4.3721697884   -0.7365978295   -0.7421820964
C        1.8346911296   -0.4603524828   -0.8603795496
C        1.3845613807   -1.8153210751   -0.3307934848
O        1.0270533710    0.2333182828   -1.4650992017
O        4.2955817289   -2.0249552616   -1.1863185713
H        4.6882541826    2.9331521554    0.5125742747
H        6.7213269628    1.5335919684    0.2545025788
H        2.4634031338    1.9974366877   -0.0263278215
H        6.5209616103   -0.7939295472   -0.5410021103
H        1.9340127868   -2.0605328516    0.5818685195
H        1.5752748497   -2.5855253903   -1.0825680194
H        0.3151880511   -1.7905127912   -0.1045752010
H        5.1867920518   -2.4005922820   -1.2837860838
18   

C        4.5677681778    1.8358735369    0.2279251122
C        5.7211097527    1.0771152513    0.0291874110
C        3.3209929032    1.3122003974   -0.1228594898
C        5.6201359897   -0.2049571042   -0.5187117348
C        3.2153089642    0.0315659743   -0.6802449048
C        4.3744688118   -0.7369888360   -0.8717091584
C        1.8424448056   -0.5069535345   -0.9982155475
C        1.3227360133   -1.7549967885   -0.2980266886
O        1.1161397421    0.0785887642   -1.7873617398
O        4.3077430092   -1.9915240790   -1.4050436718
H        4.6371519257    2.8311649233    0.6523986052
H        6.6905323218    1.4820474225    0.2993332869
H        2.4257928387    1.9064027850    0.0313098408
H        6.5229384476   -0.7844250071   -0.6661797678
H        1.5658839045   -1.7084867804    0.7665506574
H        1.7834342613   -2.6454579186   -0.7323379555
H        0.2375703057   -1.8244696916   -0.4126312303
H        5.2019927291   -2.3428406709   -1.5520977714
18   

C        4.6407452341    1.8267864068    0.3526211208
C        5.8060269375    1.0973516060    0.1184314957
C        3.4030623344    1.3038490689   -0.0309010369
C        5.7247281362   -0.1547729988   -0.4966321199
C        3.3155562498    0.0559228380   -0.6556509592
C        4.4872822616   -0.6831423032   -0.8816550335
C        1.9654372511   -0.5117718287   -1.0299057302
C        1.3704531472   -1.6467052563   -0.2089600570
O        1.3447822698   -0.0803508760   -1.9876716388
O        4.4351909110   -1.9127835409   -1.4723312526
H        4.6941747676    2.7990208997    0.8295826614
H        6.7687041072    1.5009334335    0.4135540369
H        2.4994924034    1.8767642047    0.1506254515
H        6.6351819962   -0.7148091263   -0.6699236317
H        1.2538509692   -1.3262849402    0.8294236059
H        2.0321283659   -2.5158529573   -0.2421383919
H        0.3926806946   -1.9285716803   -0.6093702389
H        5.3327485776   -2.2407704106   -1.6491177426
18   

C        4.6248892731    1.7745558714    0.4295401655
C        5.8108742206    1.0983048107    0.1447063784
C        3.4005361016    1.2315423130    0.0308123680
C        5.7631400246   -0.1218562121   -0.5345105162
C        3.3466797739    0.0168816565   -0.6579505931
C        4.5387635927   -0.6692658447   -0.9339329030
C        2.0198763456   -0.5797356977   -1.0753633099
C        1.2887906509   -1.5108248072   -0.1210728699
O        1.5206570610   -0.3175839679   -2.1559872953
O        4.5151575120   -1.8730340276   -1.5773386898
H        4.6524069435    2.7216788606    0.9565907418
H        6.7633749444    1.5175501271    0.4507926635
H        2.4818685345    1.7654947017    0.2502824372
H        6.6885635837   -0.6432196813   -0.7451354007
H        1.1277891234   -1.0074187230    0.8355404404
H        1.8905387723   -2.4085649734    0.0435631089
H        0.3221838972   -1.8001818660   -0.5427710794
H        5.4178807984   -2.1576900622   -1.7965587717
18   

C        4.6013856074    1.6757170539    0.5019552871
C        5.8138783971    1.0740238121    0.1664641880
C        3.3982152900    1.0905254321    0.0986739630
C        5.8143188508   -0.1140581731   -0.5688153207
C        3.3916856427   -0.0971020480   -0.6391016682
C        4.6117914117   -0.7049138796   -0.9729664899
C        2.0871838922   -0.7101778706   -1.0964170613
C        1.1356210241   -1.2997713301   -0.0663161159
O        1.7301550443   -0.6361832941   -2.2595425139
O        4.6386701735   -1.8760920833   -1.6734219722
H        4.5922986093    2.5995605937    1.0694277732
H        6.7500530381    1.5271055007    0.4746886409
H        2.4605692399    1.5735497299    0.3525744060
H        6.7604453578   -0.5765524737   -0.8208545038
H        1.0916669248   -0.6580175498    0.8170440526
H        1.4931201918   -2.2895003182    0.2299050633
H        0.1322830355   -1.3936063266   -0.4909325540
H        5.5465804283   -2.0886074902   -1.9453016327
18   

C        4.5873769488    1.5891786569    0.5710030635
C        5.8160857335    1.0573663895    0.1832784161
C        3.4013773660    0.9691332496    0.1695989583
C        5.8506140497   -0.0972989474   -0.6016724082
C        3.4262035409   -0.1879580558   -0.6189376908
C        4.6666469754   -0.7254585456   -1.0048189270
C        2.1378869441   -0.8202344679   -1.0829247623
C        1.0683738748   -1.1964377147   -0.0661122737
O        1.8879807669   -0.9476320896   -2.2702253857
O        4.7369425546   -1.8663152624   -1.7506789687
H        4.5521594914    2.4877255421    1.1768117079
H        6.7387814759    1.5386784617    0.4893629006
H        2.4546726681    1.4086710194    0.4640783529
H        6.8099936869   -0.5059996310   -0.8934521491
H        0.9027599167   -0.3783769210    0.6383453319
H        1.3913748430   -2.0829374567    0.4860609634
H        0.1274385086   -1.4194566545   -0.5769826618
H        5.6446561957   -2.0152497905   -2.0614422185
18   

C        4.5896341794    1.4929910667    0.6481590226
C        5.8229804540    1.0375992315    0.1887724978
C        3.4169433033    0.8414435645    0.2592721180
C        5.8756164038   -0.0743787627   -0.6531176770
C        3.4536729761   -0.2734179294   -0.5920953886
C        4.7060734373   -0.7363167386   -1.0453527839
C        2.1758319672   -0.9312762710   -1.0345160578
C        1.0531048845   -1.1592906825   -0.0315612682
O        1.9925979962   -1.2542376615   -2.1979606306
O        4.8118148696   -1.8395186811   -1.8419023591
H        4.5398555400    2.3567567247    1.3016830129
H        6.7356600667    1.5434718915    0.4851595445
H        2.4673310168    1.2240328168    0.6168936758
H        6.8402144814   -0.4256923499   -0.9976820547
H        0.5363877609   -0.2181179096    0.1714439574
H        1.4657302051   -1.5555581259    0.9000846653
H        0.3356775390   -1.8805300939   -0.4332036786
H        5.7172439551   -1.9336579026   -2.1785109660
18   

C        4.5826632190    1.4237068895    0.7108281357
C        5.8176382438    1.0461818626    0.1930186827
C        3.4274337081    0.7374722381    0.3308361422
C        5.8899833733   -0.0242298187   -0.6980375620
C        3.4775569990   -0.3374059328   -0.5740333023
C        4.7395327117   -0.7229812951   -1.0840154729
C        2.2133872515   -1.0303569648   -0.9864765866
C        1.0264260866   -1.0897587060   -0.0326454670
O        2.0871653499   -1.5527736810   -2.0846796626
O        4.8844434205   -1.7840943900   -1.9299149581
H        4.5174260517    2.2542804619    1.4048018531
H        6.7168346435    1.5792299479    0.4829620713
H        2.4800889574    1.0673826263    0.7423462319
H        6.8577378435   -0.3155375654   -1.0868881280
H        0.4810628018   -0.1429472977   -0.0592287583
H        1.3745462971   -1.2829997602    0.9855318292
H        0.3512046910   -1.8974027039   -0.3294584412
H        5.7934630094   -1.8355860768   -2.2650856225
18   

C        4.6207900367    1.3814590876    0.7150208251
C        5.8377373896    1.0479810887    0.1324740173
C        3.4647988220    0.6795402156    0.3686603171
C        5.8910278901    0.0068743238   -0.7919492321
C        3.4892121383   -0.3712249734   -0.5686232400
C        4.7405654485   -0.7083132605   -1.1476940298
C        2.2250232610   -1.0910941863   -0.9251415909
C        0.9827395335   -0.9537661863   -0.0512911349
O        2.1364666913   -1.8138890230   -1.9086446949
O        4.8848073269   -1.7305615693   -2.0401901038
H        4.5697222822    2.1894924245    1.4362837941
H        6.7377644668    1.5924496773    0.3975957872
H        2.5379598021    0.9820618781    0.8421448091
H        6.8462522223   -0.2483904705   -1.2335672533
H        0.5472086956    0.0407831158   -0.1775932761
H        1.2438554487   -1.1115397635    0.9984647951
H        0.2392606448   -1.7023744618   -0.3401064478
H        5.7951709649   -1.7736717632   -2.3721084865
18   

C        4.6296201176    1.3631536740    0.7326776669
C        5.8322206659    1.0850063621    0.0954468882
C        3.4864214599    0.6250096212    0.4213919426
C        5.8829987870    0.0661348389   -0.8527034980
C        3.5073892624   -0.4113221858   -0.5332159435
C        4.7452474004   -0.6839004960   -1.1766033368
C        2.2589105601   -1.1798849009   -0.8387197265
C        0.9501179919   -0.8554549383   -0.1252594337
O        2.2285397163   -2.0876898648   -1.6594186106
O        4.8890443183   -1.6621162701   -2.1171690520
H        4.5801025723    2.1545147843    1.4723126544
H        6.7226535104    1.6565268822    0.3347955887
H        2.5753353160    0.8835827885    0.9479434404
H        6.8262915128   -0.1410744596   -1.3425142556
H        0.6576814356    0.1772123891   -0.3326085626
H        1.0667094517   -0.9982212617    0.9522097898
H        0.1566413758   -1.5196081901   -0.4802675452
H        5.8023436503   -1.6989123653   -2.4413938364
