25

C     -2.90198   -2.80181   -1.11921
C     -3.32361   -2.03541   -0.02569
C     -2.12752   -0.11207   -0.94301
C     -1.72010   -0.87608   -2.04378
C     -2.11778   -2.22357   -2.10416
C     -2.92577   -0.70287    0.04003
C      1.54289    0.60629   -0.84795
C      1.97628   -0.12802   -2.11807
C      0.50899    1.51957   -2.71754
C     -0.78111    0.96052   -3.32078
O      0.47008    1.45141   -1.29504
O      1.65777    0.81793   -3.15002
O     -0.94484   -0.43947   -3.07666
F     -1.71750   -2.96917   -3.16018
Br    -3.46930    0.36381    1.54137
H     -3.18472   -3.84553   -1.21688
H     -3.94040   -2.47309    0.75106
H     -1.78899    0.90909   -0.83169
H      1.15909   -0.06057   -0.07155
H      2.34737    1.22802   -0.43823
H      3.04931   -0.32420   -2.16367
H      1.41775   -1.05757   -2.26690
H      0.61805    2.56548   -3.03660
H     -0.72131    1.06088   -4.40797
H     -1.64375    1.53226   -2.96187
