25

C     -2.68237   -1.30967   -1.82737
C     -4.02412   -1.69129   -1.88326
C     -4.65506    0.42293   -0.86487
C     -2.29717   -0.07554   -1.29105
C     -3.30921    0.76640   -0.80750
C     -5.00072   -0.81578   -1.40619
C      2.53679   -0.09893   -1.54452
C      1.67347   -0.70799   -2.64577
C      0.89472    1.39910   -2.16406
C     -0.53903    1.51221   -1.66543
O      1.75008    1.01009   -1.09649
O      1.03583    0.44649   -3.20954
O     -0.96592    0.21629   -1.21300
F     -2.97087    1.95795   -0.25108
Br    -6.84824   -1.31681   -1.48753
H     -1.90414   -1.96636   -2.20409
H     -4.30346   -2.65176   -2.30267
H     -5.39848    1.11094   -0.47712
H      2.70319   -0.76572   -0.69529
H      3.50114    0.25227   -1.93517
H      2.24633   -1.19807   -3.43620
H      0.92535   -1.39551   -2.23617
H      1.20402    2.37630   -2.56408
H     -1.17404    1.85177   -2.49068
H     -0.58555    2.23893   -0.84909
