26

C      1.98393   -0.88298   -0.01684
C      0.85344   -0.30768    0.56043
C      1.86533   -0.65108    2.73706
C      3.06128   -1.36729    0.74192
C      0.79168   -0.20737    1.95959
C      2.99909   -1.21821    2.14862
C      4.15542   -2.06135    0.01837
C     -1.37298    0.80845    1.90349
C      5.35130   -1.39663    2.69961
N      4.48913   -3.25184    0.39964
N      4.68551   -1.41996   -1.09031
O      5.57760   -3.72299   -0.41217
O     -0.26027    0.32636    2.65110
O      3.97227   -1.59102    3.03351
H      2.02376   -1.00124   -1.09590
H      0.04241    0.03129   -0.07294
H      1.83154   -0.53819    3.81557
H     -2.08459    1.18615    2.63889
H     -1.84283    0.00515    1.32303
H     -1.07988    1.62326    1.23005
H      5.85782   -1.17021    3.64125
H      5.47652   -0.55197    2.01268
H      5.77493   -2.29712    2.25159
H      4.70892   -0.40970   -1.04082
H      5.52167   -1.85096   -1.46859
H      5.70575   -4.62147   -0.07134
