18

C      0.55405   -0.98610   -1.80622
C      0.17184   -0.96961   -0.46727
C      0.79611   -2.19876   -2.48239
C      0.00823   -2.16025    0.27700
C      0.63268   -3.35225   -1.74406
C      0.25122   -3.34766   -0.40608
C     -0.40185   -2.05970    1.70172
C      0.52099   -5.46228   -1.05008
O     -0.60927   -1.00844    2.27987
O      0.80349   -4.66465   -2.15597
O      0.17866   -4.65337    0.03510
O     -0.52450   -3.26677    2.30404
F      1.58933   -6.22376   -0.73926
F     -0.48982   -6.30884   -1.33173
H      0.66876   -0.04944   -2.34261
H     -0.01280   -0.03238    0.04678
H      1.09455   -2.23054   -3.52513
H     -0.79431   -3.08508    3.22505
