19

C      1.87288   -0.95651   -0.17191
C      0.98661   -0.14792    0.54219
C      2.65534   -1.92508    1.92376
C      1.77474   -1.10972    2.65281
C      2.69086   -1.82993    0.53972
C      0.95599   -0.23759    1.92959
C      1.75597   -1.14488    4.14333
C      2.02813    0.12777    4.90312
N      1.56966   -2.20396    4.84865
O      1.32262   -3.35193    4.06725
F      3.55545   -2.62096   -0.14726
F      0.07257    0.55056    2.60014
H      1.93059   -0.91741   -1.25492
H      0.32030    0.54468    0.03793
H      3.30249   -2.62983    2.43348
H      1.27306    0.88492    4.67487
H      2.02429   -0.07178    5.97645
H      3.00308    0.53776    4.61616
H      1.17850   -4.03149    4.74582
