36

C      8.72345    5.87052   -0.86763
C      7.77335    6.33507   -1.78563
C      8.41324    4.78555   -0.04064
C      6.52450    5.72309   -1.87795
C      7.16452    4.16965   -0.12952
C      2.82383    3.65560   -1.90861
C      6.20512    4.63075   -1.04873
C      2.85049    2.63918   -0.97716
C      0.73067    0.07743    0.31266
C     -0.10649    0.56686   -0.68065
C      1.83333    1.67233   -0.63115
C      4.88256    4.00679   -1.16802
C      0.42657   -1.07691    1.19478
C     -1.45382    0.08458   -1.11911
C     -2.51251    0.10273    0.00953
C     -1.92117   -0.21096    1.39397
N      3.95665    4.41206   -2.01069
N      1.92446    0.76629    0.32802
N      0.60931    1.58301   -1.27437
N     -0.93303   -1.29898    1.39179
O      1.28005   -1.81933    1.66923
S      4.39595    2.63326   -0.17736
H      9.69652    6.34943   -0.79759
H      8.00839    7.17739   -2.43119
H      9.14445    4.41825    0.67440
H      5.78110    6.07481   -2.58551
H      6.94122    3.32774    0.52107
H      1.97902    3.89322   -2.54879
H     -1.81064    0.66566   -1.97582
H     -1.34040   -0.94749   -1.46755
H     -2.99079    1.08767    0.06559
H     -3.29373   -0.62162   -0.24384
H     -1.46499    0.69570    1.80567
H     -2.72778   -0.49565    2.07490
H      0.30589    2.13083   -2.06940
H     -1.09244   -2.06079    2.04194
