39

C      4.00117   -2.53395   -0.59574
C      3.14556   -2.27217   -1.63617
C      3.90174   -4.60680   -1.42161
C      1.06754    0.84619   -1.12468
C      0.48950   -1.38285   -0.59904
C      0.02074    0.94116   -0.00724
C     -0.64979   -0.45934   -0.11104
C      4.18793   -6.07038   -1.58195
C      0.66438    1.24883    1.35051
C     -1.33637   -0.96148    1.15690
C      3.75029   -1.73450    1.78284
C      4.46388   -1.54121    0.43415
C      2.47992   -0.96899   -1.99329
N      4.41628   -3.85249   -0.48994
N      1.61865   -0.49525   -0.91983
O     -1.60519   -0.43886   -1.19924
S      2.83989   -3.74410   -2.52233
H      0.58547    0.95890   -2.11156
H      1.85860    1.59991   -1.03866
H      0.78691   -2.11580    0.15763
H      0.12490   -1.93606   -1.47691
H     -0.72443    1.71357   -0.23240
H      3.26606   -6.66019   -1.61213
H      4.74076   -6.26875   -2.50669
H      4.79296   -6.40239   -0.73591
H      1.42399    0.50513    1.60661
H     -0.07706    1.27741    2.15477
H      1.15463    2.22794    1.31952
H     -2.12471   -0.26995    1.47987
H     -0.62940   -1.07442    1.98303
H     -1.79709   -1.93476    0.96192
H      2.67429   -1.57530    1.66691
H      4.12411   -1.02302    2.52738
H      3.91125   -2.74784    2.16306
H      5.54466   -1.66209    0.57061
H      4.28365   -0.52616    0.07080
H      3.24797   -0.20559   -2.16883
H      1.92532   -1.08183   -2.94390
H     -2.32209    0.16663   -0.94905
