32

C      7.50873   -3.93402    2.06522
C      8.51965    4.18896    2.55653
C      8.30737    4.62107    3.86882
C      4.85379   -6.59342    4.58858
C      8.45636    2.82817    2.26752
C      8.04141    3.68723    4.87239
C      5.65351   -5.66684    3.87679
C      4.20365   -6.02598    5.66531
C      8.18184    1.88553    3.27557
C      7.97250    2.31122    4.60800
C      5.61080   -4.38408    4.41747
C      8.13594    0.46587    2.88190
C      7.62953   -1.57542    2.79668
C      6.24758   -3.16034    4.03281
C      7.10194   -2.92096    2.98902
C      7.69938    1.35991    5.75099
N      7.82153   -4.78159    1.32847
N      7.38853   -0.50957    3.51628
N      8.80823    0.02196    1.83290
O      8.46624   -1.34248    1.76886
S      4.55923   -4.35226    5.82446
H      8.72765    4.90440    1.76574
H      8.35024    5.67969    4.11195
H      4.75740   -7.64032    4.32166
H      8.61207    2.47677    1.25243
H      7.88752    4.03099    5.89245
H      6.23822   -5.92528    3.00332
H      3.53671   -6.50934    6.36823
H      6.03369   -2.28684    4.64546
H      6.70703    0.90939    5.66464
H      8.41561    0.53396    5.77243
H      7.75804    1.89114    6.70467
