49

C     -2.73148   -1.16148    5.50351
C      2.69962   -0.12245    0.13979
C     -2.42461   -0.05550    4.70794
C      1.45378    0.35902    0.54031
C     -3.58833   -2.16068    5.03191
C      5.62981   -0.83173   -0.10529
C      1.31517   -1.52324    2.06028
C      4.76579   -3.03720   -0.39044
C     -3.81745   -0.93663    2.93959
C      6.79798   -1.27394   -0.72670
C      3.27912   -1.29040    0.66314
C      4.57042   -1.73228    0.07752
C      2.57794   -2.00335    1.67186
C     -2.96190    0.06663    3.41675
C      0.75197   -0.36893    1.51214
C     -4.12600   -2.02825    3.75097
C      5.97313   -3.39615   -0.99494
C      3.08294   -3.18530    2.38041
C     -1.25971    1.12248    1.76174
C     -3.65971    2.00307    1.82514
C     -2.92498    2.62795    2.97708
C     -2.57092    1.21317    2.53332
C      6.21812   -4.81819   -1.43875
N      4.34687   -4.65185    3.26943
N      6.98596   -2.52339   -1.17197
N      4.37459   -3.55941    2.48982
N      2.26577   -4.01226    3.07343
N      3.08510   -4.92502    3.61364
N     -0.53033   -0.00335    1.99954
O     -0.92424    2.03163    0.99678
Cl    -5.21105   -3.27172    3.13987
H     -2.29544   -1.25754    6.49405
H      3.23364    0.41217   -0.64185
H     -1.75197    0.71393    5.07757
H      1.03075    1.25763    0.11323
H     -3.82681   -3.02748    5.63967
H      5.55570    0.19166    0.25268
H      0.79041   -2.08410    2.83000
H      3.98609   -3.78011   -0.26302
H     -4.23041   -0.86657    1.93809
H      7.63172   -0.58571   -0.87124
H     -4.68378    1.68033    1.98698
H     -3.41763    2.35820    0.82931
H     -2.19556    3.39702    2.74633
H     -3.44406    2.72324    3.92620
H      6.90732   -4.83914   -2.28728
H      6.67076   -5.38942   -0.61919
H      5.28614   -5.32145   -1.71325
H     -0.92180   -0.66185    2.66150
