70

C     -2.78828    3.19278   -1.37948
C     -1.61585    3.87335   -1.00573
C     -2.85397    1.81430   -1.23034
C     -0.52625    3.18440   -0.47691
C     -1.75829    1.09737   -0.71063
C     -0.60095    1.79581   -0.32444
C     -1.80899   -0.36887   -0.60647
C     -0.48297   -1.08285   -0.22216
C      0.30099   -0.16568    0.77293
C     -0.47181    0.02465    2.08687
C      5.00471    1.26558    4.01369
C      4.31523   -3.63035    4.29137
C      1.68392   -2.02671   -4.58554
C      0.65565   -5.66271    2.29587
C      0.30854   -1.21629   -1.55592
C     -0.87027   -2.46339    0.37914
C      1.75132   -0.65752    0.97622
C      2.36623   -0.37546    2.35164
C      4.22025    0.13147    4.65887
C      3.60430   -2.31765    4.58765
C      3.75434   -1.00667    2.42554
C     -0.42949   -2.00918   -2.64429
C      0.11586   -3.64178    0.33119
N      4.26678   -1.15171    3.85461
O     -2.81213   -1.01251   -0.89537
O      1.57442   -3.75685   -2.57004
O     -0.15200   -3.95621   -4.44463
O      2.51027   -3.89420    1.59115
O      0.55739   -3.08516    2.97465
O      0.49572    1.15643    0.17688
S      0.67770   -3.12438   -3.56497
S      1.05705   -3.95569    1.88214
H     -3.63277    3.74266   -1.78322
H     -1.55751    4.95230   -1.12109
H     -3.73983    1.25534   -1.51597
H      0.37903    3.70187   -0.17400
H     -0.03276    0.84985    2.65224
H     -0.44074   -0.87562    2.70116
H     -1.51886    0.27608    1.90406
H      6.04795    0.98503    3.83352
H      4.56313    1.60130    3.07337
H      5.00952    2.11696    4.69921
H      4.24660   -3.90287    3.23670
H      5.36513   -3.60080    4.60479
H      3.82787   -4.42336    4.86516
H      2.38847   -2.66980   -5.11625
H      1.03537   -1.50866   -5.29342
H      2.22082   -1.32711   -3.94294
H      1.21497   -5.89773    3.20301
H     -0.41739   -5.73948    2.47796
H      0.97281   -6.30665    1.47398
H      1.26102   -1.70512   -1.34553
H      0.54835   -0.21703   -1.92650
H     -1.75766   -2.78516   -0.16740
H     -1.21933   -2.32977    1.40409
H      1.81456   -1.72726    0.79829
H      2.36042   -0.19043    0.19692
H      2.41451    0.70242    2.53169
H      1.72529   -0.81572    3.11619
H      3.16738    0.38112    4.79341
H      4.63621   -0.11510    5.63821
H      3.64575   -2.07886    5.65165
H      2.56001   -2.34811    4.27640
H      3.73506   -2.01685    2.01440
H      4.49748   -0.42157    1.88024
H     -1.17997   -2.69737   -2.25102
H     -0.93637   -1.37760   -3.37722
H     -0.44259   -4.56929    0.17625
H      0.87294   -3.60316   -0.45494
H      5.25767   -1.39994    3.77142
