66

C    -10.07757   -2.20900    8.51103
C     -8.04811   -3.24055    9.38134
C     -6.66442   -3.39793    9.40536
C     -6.44846   -1.69825    7.68743
C     -8.64541   -2.32256    8.50486
C     -7.82954   -1.54621    7.65488
C     -5.86862   -2.63102    8.55370
C     -3.71675   -2.71140    9.77646
C     -3.61923   -3.00834    7.47243
C      4.06850   -0.57313    0.15063
C      3.91055   -0.19202    2.56751
C      2.84526   -2.19426    1.65539
C      2.66329    0.05831    3.40955
C      1.61948   -1.90783    2.52466
C     -2.24940   -2.89844    9.39112
C     -1.71387   -4.17307   10.06476
C     -1.44265   -1.65970    9.80536
C      3.97353   -1.74184   -3.34487
C      3.71256   -1.48087   -1.03556
C     -0.74451   -1.97702    6.33992
C      0.38397   -2.26229    5.34446
C     -1.19430   -3.25349    7.05988
C      0.86165   -0.98681    4.64448
C     -8.44898   -0.54174    6.70819
N    -11.23990   -2.15219    8.55094
N     -4.45434   -2.77689    8.59634
N     -2.34730   -3.04623    7.93200
N      3.56838   -0.95991    1.37250
N      2.00167   -1.20619    3.75122
O     -4.15486   -2.54401   10.89803
O      4.74709    0.43685    0.00525
O      4.26668   -0.94604   -2.20891
F     -7.50864    0.12826    6.00324
F     -9.26978   -1.14099    5.81519
F     -9.18328    0.38098    7.37325
S     -4.13873   -3.22563    5.91170
H     -8.67699   -3.83297   10.03746
H     -6.20634   -4.10713   10.08518
H     -5.82276   -1.10032    7.03860
H      4.36249    0.74632    2.24759
H      4.64609   -0.75115    3.16242
H      3.50493   -2.89604    2.18568
H      2.51950   -2.67191    0.73215
H      2.95670    0.56126    4.33686
H      1.98400    0.73577    2.85831
H      0.88973   -1.31787    1.93620
H      1.14833   -2.86059    2.78027
H     -0.65386   -4.31596    9.83754
H     -2.26588   -5.05450    9.72626
H     -1.82599   -4.08158   11.14781
H     -0.38770   -1.78795    9.54680
H     -1.52283   -1.52169   10.88639
H     -1.81913   -0.76181    9.30809
H      4.43982   -1.25303   -4.20276
H      2.88870   -1.81651   -3.51934
H      4.38276   -2.75935   -3.24436
H      2.61549   -1.56083   -1.12354
H      4.09835   -2.49800   -0.84909
H     -1.60650   -1.55338    5.81507
H     -0.41798   -1.23557    7.07838
H      1.24164   -2.71917    5.85369
H      0.02570   -2.99256    4.61017
H     -0.38247   -3.65372    7.67301
H     -1.46457   -4.01863    6.32688
H      0.01396   -0.51564    4.11051
H      1.18194   -0.27181    5.41102
