21   
Generated by ForceBalance from scan.xyz: Frame 1 of 24
C       -3.6652342735   -6.5074669809    5.7790468551
C       -2.3537489636   -6.9946623745    5.8111792498
C       -3.8921021479   -5.1329606432    5.6472254565
C       -1.2731752288   -6.1152332466    5.7180520673
C       -2.8102266854   -4.2511026300    5.5530721574
C       -1.4935505724   -4.7364781680    5.5911213648
C       -0.3396039436   -3.7772440314    5.5457653872
N       -1.0303959545   -3.0083862366    8.1070010911
O        0.9838159429   -4.7223084060    7.6695019584
O        1.1854896262   -2.2278593693    7.1463058386
O       -1.7049636632   -4.1638583927    8.6068625637
S        0.4014885161   -3.4670976198    7.1901654254
H       -4.5043602068   -7.1937116363    5.8544561810
H       -2.1728465464   -8.0607388926    5.9172963519
H       -4.9075937899   -4.7473224652    5.6152697487
H       -0.2561526301   -6.4922683031    5.7754020850
H       -2.9878085539   -3.1824480885    5.4583390496
H       -0.6205984017   -2.7919297238    5.1702829996
H        0.5054669176   -4.1590019079    4.9665238402
H       -0.6479770090   -2.5787610195    8.9563506923
H       -2.4693827266   -4.2526573573    8.0084525166
21   
Generated by ForceBalance from scan.xyz: Frame 2 of 24
C       -3.6607725653   -6.5310053824    5.8006878449
C       -2.3502888445   -7.0200471486    5.7703538740
C       -3.8912368007   -5.1531467243    5.7127576567
C       -1.2727638942   -6.1384437595    5.6580472690
C       -2.8133075803   -4.2695748655    5.5981626257
C       -1.4969869843   -4.7571708884    5.5714290376
C       -0.3419382545   -3.7986453886    5.5193780184
N       -1.1124081923   -2.9963353681    8.0174146953
O        0.8793343152   -4.7512760524    7.7045016882
O        1.1544323022   -2.2642764943    7.1485108874
O       -1.7272152491   -4.0730164346    8.7085447445
S        0.3489104260   -3.4912980217    7.1845196783
H       -4.4974093823   -7.2185081402    5.8911384661
H       -2.1668259621   -8.0885148218    5.8426207511
H       -4.9068602765   -4.7667945490    5.7303676988
H       -0.2548734770   -6.5177435347    5.6658408238
H       -2.9916982165   -3.1987363471    5.5411211817
H       -0.6179028376   -2.8144539471    5.1381931877
H        0.5085033934   -4.1875848003    4.9534323664
H       -0.7959278866   -2.3453468711    8.7423417978
H       -2.4679905783   -4.3170486465    8.1229292288
21   
Generated by ForceBalance from scan.xyz: Frame 3 of 24
C       -3.6386013296   -6.5515564369    5.7758827841
C       -2.3279220620   -7.0338941867    5.6966055924
C       -3.8767967510   -5.1724324160    5.7449172405
C       -1.2581191695   -6.1417392886    5.5907046961
C       -2.8057406403   -4.2804452406    5.6367321518
C       -1.4883029993   -4.7591889261    5.5575939801
C       -0.3365024372   -3.7959004258    5.5139114613
N       -1.1404562825   -2.9442030674    7.9706492336
O        0.7738897865   -4.7718465171    7.7533802278
O        1.1818025643   -2.3091461265    7.1456692175
O       -1.7040703225   -3.8918270870    8.8533318157
S        0.3230239127   -3.4999878383    7.1932525646
H       -4.4703569280   -7.2458234420    5.8600986207
H       -2.1381762823   -8.1034015498    5.7245922928
H       -4.8934562548   -4.7921548751    5.8003992106
H       -0.2390295472   -6.5168038328    5.5581854095
H       -2.9894971101   -3.2094061482    5.6227696896
H       -0.6097841088   -2.8099973030    5.1355544096
H        0.5202848790   -4.1810179624    4.9550351747
H       -0.8779705943   -2.1209603235    8.5183957689
H       -2.4333434498   -4.2739143603    8.3305864330
21   
Generated by ForceBalance from scan.xyz: Frame 4 of 24
C       -3.6644960663   -6.6001441355    5.6592708956
C       -2.3525455886   -7.0775617828    5.5698587155
C       -3.9017146905   -5.2214461603    5.7001352665
C       -1.2819697431   -6.1815959954    5.5221231241
C       -2.8304228579   -4.3253085492    5.6521526235
C       -1.5128853294   -4.7990174224    5.5583581011
C       -0.3598901238   -3.8377000059    5.5569821404
N       -1.1485745668   -2.9157911997    8.0004486457
O        0.5996767910   -4.8794240525    7.8440075094
O        1.2642935961   -2.4838064565    7.1827332138
O       -1.5870138142   -3.6576758850    9.1185419293
S        0.2909732758   -3.5828219727    7.2472613059
H       -4.4971414123   -7.2976722151    5.6957071715
H       -2.1627254224   -8.1471000392    5.5418877951
H       -4.9190824925   -4.8446192662    5.7656853528
H       -0.2626587555   -6.5551233650    5.4759094723
H       -3.0141219226   -3.2551293959    5.6940337710
H       -0.6225310884   -2.8416802942    5.1969913407
H        0.5035436450   -4.2086840080    4.9983660872
H       -0.8900046720   -1.9841282378    8.3337944521
H       -2.3150136093   -4.1949659039    8.7582153774
21   
Generated by ForceBalance from scan.xyz: Frame 5 of 24
C       -3.6714537173   -6.6328934448    5.5242377366
C       -2.3503502396   -7.0912040664    5.4784857811
C       -3.9296005668   -5.2587511121    5.5784488933
C       -1.2921211360   -6.1798137008    5.4835596413
C       -2.8704071968   -4.3479155727    5.5862419772
C       -1.5447126325   -4.8013433881    5.5323194441
C       -0.4053336802   -3.8262849278    5.5602643184
N       -1.1387945450   -2.8463794442    8.0075415490
O        0.4720872156   -4.8923465866    7.8788166190
O        1.3518150745   -2.5948326754    7.1436583396
O       -1.2879877397   -3.2987816141    9.3433997567
S        0.2760189931   -3.5910497595    7.2429895510
H       -4.4949712945   -7.3421736406    5.5175300530
H       -2.1442776296   -8.1574759778    5.4409125630
H       -4.9538989523   -4.8972221165    5.6143282158
H       -0.2665092114   -6.5384433038    5.4659422541
H       -3.0715324941   -3.2814305723    5.6428461305
H       -0.6789189830   -2.8268198293    5.2156224457
H        0.4628245437   -4.1687312662    4.9901948376
H       -0.9121537669   -1.8521182776    8.0970726881
H       -1.9082587132   -4.0439274902    9.2596970260
21   
Generated by ForceBalance from scan.xyz: Frame 6 of 24
C       -3.8145594608   -6.3236711773    5.7098255769
C       -2.6543188854   -6.5653768891    6.4533150284
C       -3.8613105025   -5.2402762412    4.8258143001
C       -1.5441681675   -5.7302865178    6.3107170672
C       -2.7515484545   -4.4036793242    4.6864334810
C       -1.5837425478   -4.6460535876    5.4225649593
C       -0.3934352677   -3.7447901722    5.2821483980
N       -1.7091291329   -1.5204069984    6.1628301671
O       -0.5941120239   -3.0652052887    7.8994021282
O        0.9518769941   -1.7155059856    6.3706440553
O       -2.1383267802   -0.7751339663    7.2959148500
S       -0.2851927368   -2.4745990413    6.5974865874
H       -4.6774686300   -6.9754243828    5.8189086949
H       -2.6145821378   -7.4027173898    7.1447584774
H       -4.7605300458   -5.0469272265    4.2469525435
H       -0.6498887297   -5.9101974425    6.9013095296
H       -2.7950447825   -3.5542044562    4.0095688743
H       -0.3750981998   -3.1921627993    4.3395843423
H        0.5578698448   -4.2740839563    5.3879778659
H       -1.3873730277   -0.8043065947    5.5052261479
H       -2.7842292248   -1.3688201774    7.7178380440
21   
Generated by ForceBalance from scan.xyz: Frame 7 of 24
C       -3.8133601500   -6.3795800292    5.6565315844
C       -2.6733028563   -6.5888882496    6.4401912854
C       -3.8524433957   -5.3085361530    4.7576481902
C       -1.5755125595   -5.7340108655    6.3233637361
C       -2.7551511868   -4.4516878650    4.6440467473
C       -1.6083365198   -4.6607627343    5.4215781923
C       -0.4305504036   -3.7394908985    5.3031607995
N       -1.7446135570   -1.5644462196    6.2893629549
O       -0.5815335184   -3.1303650594    7.9545528546
O        0.9258032950   -1.7454712630    6.4330983186
O       -1.9499924319   -0.6281065978    7.3419358761
S       -0.3064814534   -2.5115426551    6.6577510316
H       -4.6663932411   -7.0470951684    5.7460039002
H       -2.6396813046   -7.4170510854    7.1429207833
H       -4.7356391102   -5.1403680681    4.1471984138
H       -0.6977686858   -5.8887507877    6.9448307130
H       -2.7931317176   -3.6144495802    3.9510452054
H       -0.4260637024   -3.1580332217    4.3775814629
H        0.5290630629   -4.2592752554    5.3796425714
H       -1.5272889029   -0.9886956057    5.4706970629
H       -2.5830093266   -1.0894080008    7.9201306898
21   
Generated by ForceBalance from scan.xyz: Frame 8 of 24
C       -3.8082343034   -6.3628633648    5.6024390056
C       -2.7126321059   -6.5273646923    6.4573300161
C       -3.8017559386   -5.3349538542    4.6543101140
C       -1.6142393252   -5.6705446729    6.3650214015
C       -2.7039503328   -4.4754300685    4.5649455440
C       -1.6031426899   -4.6375309062    5.4165965624
C       -0.4269755220   -3.7099003790    5.3173622645
N       -1.8159944542   -1.6754214205    6.4959649960
O       -0.3826278117   -3.1899453360    7.9941124602
O        0.8597576079   -1.6468013958    6.3998235947
O       -1.8427910091   -0.5780796648    7.4011205135
S       -0.2845690487   -2.5148847624    6.6995044199
H       -4.6612084337   -7.0325325190    5.6741699693
H       -2.7141359264   -7.3233856452    7.1970607657
H       -4.6484624806   -5.2028555003    3.9860652503
H       -0.7726690916   -5.7893465763    7.0414647622
H       -2.7042416765   -3.6766892199    3.8260550691
H       -0.4254976894   -3.1084559886    4.4049383474
H        0.5339123668   -4.2304275999    5.3777028149
H       -1.8207818921   -1.2574554281    5.5609520368
H       -2.3981021773   -0.9138699408    8.1265356706
21   
Generated by ForceBalance from scan.xyz: Frame 9 of 24
C       -3.8130293879   -6.3051916497    5.5748601419
C       -2.7522887943   -6.4427420085    6.4778514154
C       -3.7536591575   -5.3280299806    4.5769534379
C       -1.6373656301   -5.6081544241    6.3867095356
C       -2.6385112889   -4.4901925563    4.4868090038
C       -1.5748163478   -4.6233462109    5.3896252045
C       -0.3857951319   -3.7093405044    5.2884856788
N       -1.8750753200   -1.8856498375    6.7071699932
O       -0.0556192385   -3.2353810129    7.9443055801
O        0.7367628129   -1.4958803059    6.2730119148
O       -1.8469360790   -0.6224034562    7.3605955303
S       -0.2280196176   -2.5228878343    6.6767822686
H       -4.6791255943   -6.9575791056    5.6477167815
H       -2.7950142648   -7.2006425955    7.2554187334
H       -4.5709671231   -5.2190916613    3.8691287328
H       -0.8244701593   -5.7019562280    7.1009967196
H       -2.5932661950   -3.7361806582    3.7030546172
H       -0.3860373785   -3.1016866082    4.3810294214
H        0.5672130944   -4.2447726623    5.3437652757
H       -2.1512466155   -1.6888351156    5.7405394386
H       -2.2300894481   -0.8253718928    8.2317450013
21   
Generated by ForceBalance from scan.xyz: Frame 10 of 24
C       -3.8209437644   -6.2724799385    5.5433925522
C       -2.7667218430   -6.4265199288    6.4517054890
C       -3.7402526276   -5.2984318886    4.5442736202
C       -1.6373844371   -5.6113548760    6.3655281784
C       -2.6100099427   -4.4799210984    4.4576201932
C       -1.5526596592   -4.6296924613    5.3663280283
C       -0.3515791186   -3.7295751957    5.2710211550
N       -1.8669312648   -2.0105849605    6.8475466281
O        0.1159283241   -3.3168431077    7.8986690540
O        0.6816640993   -1.4593676432    6.2615892906
O       -1.8600628489   -0.6329252307    7.1981235437
S       -0.1846478314   -2.5642501554    6.6783845689
H       -4.6984777083   -6.9096522326    5.6135461080
H       -2.8268047636   -7.1816080724    7.2308086109
H       -4.5518240393   -5.1768614582    3.8319698816
H       -0.8303467070   -5.7156297542    7.0850128648
H       -2.5459758744   -3.7306375132    3.6706191575
H       -0.3550863079   -3.1071771847    4.3740543711
H        0.5933792461   -4.2793315770    5.3157710927
H       -2.2980925874   -2.0472353256    5.9192069296
H       -2.0996575413   -0.6503116955    8.1408763991
21   
Generated by ForceBalance from scan.xyz: Frame 11 of 24
C       -3.7996258425   -6.2618676641    5.5200927566
C       -2.7327988297   -6.4497176779    6.4070343510
C       -3.7322514396   -5.2525049608    4.5555905783
C       -1.6033772053   -5.6330542499    6.3344742147
C       -2.6017162151   -4.4329299850    4.4818775928
C       -1.5308911325   -4.6164248880    5.3696077668
C       -0.3332319222   -3.7106847092    5.2919487666
N       -1.8748143087   -2.0146099655    6.9607337096
O        0.1229109681   -3.3884433170    7.9113324977
O        0.6606907774   -1.4402081550    6.3654095052
O       -1.8991731304   -0.5923905582    6.9574928179
S       -0.1851006800   -2.5771439763    6.7307013726
H       -4.6771925901   -6.8999694101    5.5803338906
H       -2.7831127830   -7.2320269033    7.1594637506
H       -4.5539712067   -5.1040460891    3.8602756598
H       -0.7869021801   -5.7626218837    7.0388666513
H       -2.5475340572   -3.6559384857    3.7215928729
H       -0.3463074044   -3.0671949202    4.4099393875
H        0.6140482382   -4.2565446598    5.3240197662
H       -2.3865446394   -2.2604422947    6.1079266775
H       -1.9588043614   -0.3708605822    7.9026086392
21   
Generated by ForceBalance from scan.xyz: Frame 12 of 24
C       -3.7795082422   -6.2598337194    5.5037580257
C       -2.6932360384   -6.5008496701    6.3533892126
C       -3.7316461775   -5.1966956101    4.5973769819
C       -1.5633181148   -5.6830740814    6.3013187779
C       -2.6004295053   -4.3763648161    4.5444581654
C       -1.5090236179   -4.6128343744    5.3947984759
C       -0.3157156079   -3.7016217594    5.3490197228
N       -1.8816801422   -2.0116679319    7.0860705150
O        0.0638340659   -3.4800910001    7.9725638277
O        0.6491627464   -1.4548163189    6.5356430632
O       -1.9519205783   -0.6320131729    6.7238154621
S       -0.2034675881   -2.6074361316    6.8262223402
H       -4.6576598362   -6.8983969288    5.5480078118
H       -2.7287456249   -7.3247142181    7.0609423599
H       -4.5691528027   -5.0064551980    3.9317586406
H       -0.7317114797   -5.8535369423    6.9785739226
H       -2.5620423813   -3.5556625293    3.8307385661
H       -0.3278378676   -3.0340299953    4.4848429420
H        0.6353456968   -4.2403783342    5.3772808227
H       -2.4527509105   -2.4362883675    6.3476846316
H       -1.8035286157   -0.1692673866    7.5660044095
21   
Generated by ForceBalance from scan.xyz: Frame 13 of 24
C       -3.7773541584   -6.2636257383    5.4787426277
C       -2.6693339018   -6.5630498967    6.2801939950
C       -3.7489154191   -5.1400695964    4.6472001077
C       -1.5383171897   -5.7452583004    6.2541413889
C       -2.6172216833   -4.3192334014    4.6189688429
C       -1.5041632754   -4.6159547195    5.4215573533
C       -0.3121505213   -3.7040175288    5.4103069709
N       -1.8755214797   -2.0116777111    7.1681994098
O       -0.0288600647   -3.5728781600    8.0461516100
O        0.6477942683   -1.5056140088    6.7022332322
O       -1.9825687162   -0.7475417091    6.4978881893
S       -0.2305757224   -2.6544272503    6.9229955206
H       -4.6562173897   -6.9023310265    5.5024953830
H       -2.6885306230   -7.4333167429    6.9304576307
H       -4.6035182186   -4.9027059566    4.0196122886
H       -0.6898745344   -5.9630049096    6.8960380430
H       -2.5961681700   -3.4494384435    3.9653895905
H       -0.3182313418   -3.0112205827    4.5661456698
H        0.6406658466   -4.2394443473    5.4342846529
H       -2.4959502431   -2.5754090272    6.5764205114
H       -1.6743028092   -0.1101692009    7.1648390459
21   
Generated by ForceBalance from scan.xyz: Frame 14 of 24
C       -3.7887352263   -6.2675804315    5.4539311480
C       -2.6572866159   -6.6189723325    6.1994781668
C       -3.7864673007   -5.0915862727    4.6973301033
C       -1.5269353439   -5.7996415349    6.1913849020
C       -2.6551213083   -4.2701623578    4.6873302508
C       -1.5176423396   -4.6191814239    5.4328757509
C       -0.3267759364   -3.7071870239    5.4463068452
N       -1.8659234525   -1.9960012446    7.1764710549
O       -0.1294927446   -3.6275943951    8.1025984760
O        0.6570571253   -1.5683579859    6.7987331244
O       -1.9927770168   -0.8990940543    6.2540819888
S       -0.2589467376   -2.6939015738    6.9822403307
H       -4.6671136944   -6.9073155616    5.4630432109
H       -2.6575567449   -7.5300425407    6.7915573308
H       -4.6607068903   -4.8139998467    4.1148374569
H       -0.6588307520   -6.0589365398    6.7903486747
H       -2.6539709727   -3.3564661987    4.0966458175
H       -0.3309984249   -2.9914656962    4.6218138360
H        0.6273511712   -4.2405961646    5.4598119397
H       -2.5287233336   -2.6600948471    6.7613997558
H       -1.6407588295   -0.1440386932    6.7571288794
21   
Generated by ForceBalance from scan.xyz: Frame 15 of 24
C       -3.7988130266   -6.2704465494    5.4338224220
C       -2.6491689190   -6.6553042442    6.1333517273
C       -3.8160829667   -5.0588338201    4.7353677482
C       -1.5200708440   -5.8339815979    6.1355659891
C       -2.6863327816   -4.2354238192    4.7354967034
C       -1.5303469004   -4.6192363683    5.4337297684
C       -0.3385557868   -3.7090009104    5.4608044799
N       -1.8415290172   -1.9691227467    7.1526749389
O       -0.2074755218   -3.6517258082    8.1398081812
O        0.6874784898   -1.6305146189    6.8407845345
O       -2.0020221094   -1.0615833185    6.0510358531
S       -0.2704856591   -2.7220610187    7.0108437287
H       -4.6763339898   -6.9114920276    5.4338384508
H       -2.6339615891   -7.5937548377    6.6808331450
H       -4.7055514395   -4.7548968349    4.1901630511
H       -0.6365769912   -6.1212180480    6.6985851865
H       -2.7015170446   -3.2913059888    4.1957309351
H       -0.3431092861   -2.9754207003    4.6528881890
H        0.6153824681   -4.2430009301    5.4619127777
H       -2.5442620870   -2.6862471607    6.9456634048
H       -1.6945449566   -0.2147961035    6.4193357478
21   
Generated by ForceBalance from scan.xyz: Frame 16 of 24
C       -3.8045114427   -6.2766856309    5.4274238254
C       -2.6332951330   -6.6676064400    6.0865080056
C       -3.8566412457   -5.0403118842    4.7755385850
C       -1.5179443039   -5.8276983725    6.0931525849
C       -2.7405121613   -4.1986531246    4.7808556021
C       -1.5626209135   -4.5884153430    5.4370648271
C       -0.3808145232   -3.6648033647    5.4689540809
N       -1.8370863329   -1.8957218009    7.1475598240
O       -0.3014258974   -3.6330586715    8.1693809839
O        0.6994053297   -1.6573347698    6.8754716159
O       -2.0629413096   -1.1521892743    5.9470895303
S       -0.3053416802   -2.7075793969    7.0351176545
H       -4.6714664610   -6.9320331123    5.4227155577
H       -2.5902940513   -7.6252947024    6.5981053170
H       -4.7633265610   -4.7313961002    4.2622457429
H       -0.6168696777   -6.1223343680    6.6238298387
H       -2.7836887287   -3.2341179098    4.2813297176
H       -0.3996788313   -2.9143975221    4.6776711883
H        0.5787949798   -4.1884058554    5.4503380203
H       -2.5756665882   -2.6048103977    7.1650373127
H       -1.7989284377   -0.2498298381    6.1991020913
21   
Generated by ForceBalance from scan.xyz: Frame 17 of 24
C       -3.7985515655   -6.2869715141    5.4055445208
C       -2.6225565653   -6.6905670701    6.0482077725
C       -3.8561193714   -5.0342766629    4.7862477570
C       -1.5095886308   -5.8479450761    6.0698569909
C       -2.7427500614   -4.1891838885    4.8069255123
C       -1.5603866859   -4.5924269544    5.4456928358
C       -0.3760093950   -3.6723600705    5.4939009611
N       -1.7529054219   -1.8283244847    7.1485726847
O       -0.3841254620   -3.6594503319    8.2144897247
O        0.7986508303   -1.7751482923    6.9400300405
O       -2.0337570234   -1.2091915487    5.8997256382
S       -0.2882792039   -2.7442101083    7.0755074489
H       -4.6638183452   -6.9444542036    5.3883305359
H       -2.5738458384   -7.6608834961    6.5349451951
H       -4.7664797363   -4.7148932763    4.2858978592
H       -0.6045598247   -6.1549898437    6.5869075930
H       -2.7916796189   -3.2119282693    4.3344376038
H       -0.3896626431   -2.9065818265    4.7179369701
H        0.5817822898   -4.1989349854    5.4654624758
H       -2.5319959706   -2.4486947688    7.3809029517
H       -1.7735677253   -0.2836142176    6.0526772649
21   
Generated by ForceBalance from scan.xyz: Frame 18 of 24
C       -3.7868748411   -6.3192211374    5.3823179316
C       -2.6082949488   -6.7089890603    6.0287624492
C       -3.8603279372   -5.0651896116    4.7676245578
C       -1.5081572599   -5.8501175170    6.0571803336
C       -2.7595026939   -4.2041287042    4.7967897460
C       -1.5738849751   -4.5930146108    5.4373502123
C       -0.3979087607   -3.6624739699    5.4905797351
N       -1.6916337845   -1.7542523044    7.1329392985
O       -0.4601492047   -3.6553532424    8.2285916356
O        0.8646571413   -1.8685057304    6.9618594754
O       -2.0667977346   -1.2473454168    5.8666878110
S       -0.2908133109   -2.7576261688    7.0835778955
H       -4.6425742858   -6.9889639902    5.3589755425
H       -2.5475240664   -7.6803476686    6.5121354968
H       -4.7734855000   -4.7568857043    4.2653194304
H       -0.6004238249   -6.1471754604    6.5755217519
H       -2.8212979361   -3.2251085020    4.3303742759
H       -0.4236102102   -2.8842974475    4.7276799177
H        0.5643920307   -4.1794278120    5.4446695822
H       -2.4703230583   -2.2462027026    7.5741087076
H       -1.7923473174   -0.3142144703    5.9140951645
21   
Generated by ForceBalance from scan.xyz: Frame 19 of 24
C       -3.7810501317   -6.3403022526    5.3568998246
C       -2.6023310923   -6.7250462167    6.0060041022
C       -3.8645854731   -5.0817046278    4.7530392649
C       -1.5114654893   -5.8550598026    6.0465126175
C       -2.7727746489   -4.2099733478    4.7959212924
C       -1.5864245491   -4.5929884324    5.4378293291
C       -0.4152682799   -3.6568188881    5.5018296095
N       -1.6257197567   -1.7034422476    7.1399667215
O       -0.5165873130   -3.6667157522    8.2539648843
O        0.9268725077   -1.9696098964    7.0067147722
O       -2.1016584072   -1.2749214547    5.8857949055
S       -0.2872940245   -2.7810183957    7.1092556538
H       -4.6300629540   -7.0180914321    5.3234572193
H       -2.5341963573   -7.7000357095    6.4810815595
H       -4.7786818118   -4.7778133900    4.2496897803
H       -0.6028716548   -6.1484330231    6.5656329578
H       -2.8429156262   -3.2267786799    4.3402222122
H       -0.4479142250   -2.8655686934    4.7529587136
H        0.5490861734   -4.1680023302    5.4402004496
H       -2.3663768307   -2.0297925405    7.7603328251
H       -1.7942698386   -0.3519770597    5.8337401556
21   
Generated by ForceBalance from scan.xyz: Frame 20 of 24
C       -3.7863220469   -6.4033929624    5.3968097559
C       -2.6265179949   -6.7804519112    6.0826049389
C       -3.8361551583   -5.1714385158    4.7353120206
C       -1.5204088399   -5.9282545969    6.1039093562
C       -2.7302092756   -4.3185794656    4.7575842074
C       -1.5633743081   -4.6958617906    5.4370231068
C       -0.3819495656   -3.7729828865    5.4741557850
N       -1.8781922625   -1.8464011022    6.7843229362
O       -0.5637834507   -3.5702127378    8.1281464643
O        0.6880558272   -1.7186364274    6.8647855955
O       -1.7498314698   -0.4683305140    6.5314085518
S       -0.3945448566   -2.7057971393    6.9547663763
H       -4.6473389744   -7.0664657666    5.3783249101
H       -2.5846101558   -7.7344241921    6.6012786328
H       -4.7363177638   -4.8742829127    4.2039320038
H       -0.6258389844   -6.2121396314    6.6515642752
H       -2.7740422024   -3.3549025759    4.2576523595
H       -0.3434027254   -3.0844604840    4.6271716579
H        0.5722972101   -4.3018062111    5.5491504848
H       -2.4697005450   -2.0468987426    7.5949069460
H       -1.0297133479   -0.1303729724    7.1026807354
21   
Generated by ForceBalance from scan.xyz: Frame 21 of 24
C       -3.7778606813   -6.4378779193    5.3591913832
C       -2.6083971065   -6.8220766724    6.0241905293
C       -3.8548624490   -5.1797200459    4.7518815209
C       -1.5180316604   -5.9512593498    6.0786061971
C       -2.7644680728   -4.3088740949    4.8082971126
C       -1.5874802837   -4.6925358338    5.4659817202
C       -0.4230181194   -3.7508694634    5.5370152920
N       -1.9190735670   -1.8401469868    6.8583927458
O       -0.6739158738   -3.5940831979    8.2068740475
O        0.6579216471   -1.7646581309    6.9938574116
O       -1.7322065948   -0.5266437027    6.3824455491
S       -0.4525513819   -2.7268927169    7.0460250138
H       -4.6261626708   -7.1159573207    5.3151951312
H       -2.5466366736   -7.7965617218    6.5010554088
H       -4.7629488874   -4.8766616639    4.2375396382
H       -0.6156904173   -6.2423873517    6.6098132206
H       -2.8288226795   -3.3250742390    4.3516354012
H       -0.3934026069   -3.0333943478    4.7138198407
H        0.5409637350   -4.2634705865    5.5972979082
H       -2.4127733344   -1.8581585473    7.7564095174
H       -0.9562344491   -0.1559501764    6.8539090502
21   
Generated by ForceBalance from scan.xyz: Frame 22 of 24
C       -3.7576662498   -6.4710124748    5.3244938135
C       -2.5733967735   -6.8571058720    5.9614137643
C       -3.8628951442   -5.1927187285    4.7653680465
C       -1.4978354244   -5.9694471369    6.0352532973
C       -2.7884570580   -4.3038544330    4.8408197066
C       -1.5972599668   -4.6908099071    5.4701443852
C       -0.4488839101   -3.7318935731    5.5626427309
N       -1.9301220049   -1.8404041192    6.9020780428
O       -0.7256575943   -3.6235131016    8.2545637327
O        0.6567689356   -1.8153855726    7.0733759980
O       -1.6944527739   -0.6208315200    6.2262870515
S       -0.4762559556   -2.7556595301    7.1019989861
H       -4.5945362857   -7.1620668305    5.2654768036
H       -2.4885927725   -7.8468914182    6.4017636264
H       -4.7825370408   -4.8873824459    4.2734823667
H       -0.5838374968   -6.2642459020    6.5443443259
H       -2.8762311284   -3.3050351844    4.4220497831
H       -0.4407855811   -2.9846579082    4.7657087360
H        0.5253935538   -4.2269767203    5.5953126530
H       -2.3024719980   -1.6665056295    7.8429613053
H       -0.8842140997   -0.2265114896    6.6162529607
21   
Generated by ForceBalance from scan.xyz: Frame 23 of 24
C       -3.7467903713   -6.4650259007    5.3051427103
C       -2.5577638477   -6.8594411883    5.9277980441
C       -3.8634709470   -5.1742878905    4.7776337238
C       -1.4875548647   -5.9668446126    6.0186958305
C       -2.7944747583   -4.2808453725    4.8708568673
C       -1.5981451529   -4.6755747372    5.4854912326
C       -0.4557491985   -3.7113608916    5.5961024603
N       -1.9387804042   -1.8527216664    6.9615870392
O       -0.7124886860   -3.6416398163    8.3089986837
O        0.6571024705   -1.8285188355    7.1295005424
O       -1.7070939129   -0.7600836009    6.0843807458
S       -0.4770878589   -2.7703726827    7.1579190142
H       -4.5794697592   -7.1598444353    5.2328889356
H       -2.4649873560   -7.8590806506    6.3436088839
H       -4.7874380507   -4.8630187452    4.2977077934
H       -0.5691897663   -6.2683510667    6.5160396218
H       -2.8904334823   -3.2723777297    4.4775776857
H       -0.4547652944   -2.9456474401    4.8174800322
H        0.5218185874   -4.2005374551    5.6162803074
H       -2.1697311650   -1.4850028557    7.8933773316
H       -0.8833649347   -0.3175452691    6.3853525141
21   
Generated by ForceBalance from scan.xyz: Frame 24 of 24
C       -3.7463240393   -6.4618031281    5.2800261336
C       -2.5558317960   -6.8635500519    5.8951245289
C       -3.8678382606   -5.1599056164    4.7819076112
C       -1.4895953765   -5.9686459523    6.0078264344
C       -2.8034504310   -4.2634631252    4.8962820653
C       -1.6059275315   -4.6663649672    5.5034311161
C       -0.4689708393   -3.6982031013    5.6368087607
N       -1.9625868709   -1.8738856719    7.0494893610
O       -0.6973781320   -3.6816038507    8.3669756175
O        0.6407102498   -1.8445235399    7.1944476368
O       -1.7733772956   -0.9245641529    5.9998823075
S       -0.4875795973   -2.7959165275    7.2236304836
H       -4.5756058464   -7.1587920239    5.1913130757
H       -2.4587433267   -7.8717971443    6.2885282629
H       -4.7928660996   -4.8420445026    4.3084206325
H       -0.5702948308   -6.2772733772    6.4991672365
H       -2.9037167035   -3.2466815454    4.5259420610
H       -0.4726056768   -2.9157966184    4.8766385759
H        0.5113579964   -4.1821303295    5.6499215498
H       -2.0406783199   -1.3317363581    7.9204286535
H       -0.9478325419   -0.4309835774    6.1992894940
