24   

C       -4.2534867498   -1.0923284385    5.2354965574
C       -4.4072107361   -0.5769577061    3.9335683507
C       -2.0772038828   -1.5831364096    4.7813877093
C       -2.2078640897   -1.0693933477    3.4642388569
C       -1.1513787710   -0.5771747403    1.2116694518
C       -0.0365808365   -0.5511808993    0.4173173485
C       -1.0318912658   -1.0975458541    2.5615122465
C       -0.9538949649    0.9615108242   -1.2966362336
C        1.3946553358    0.0113500271   -1.4857979536
N       -3.0894709139   -1.6007624889    5.6753549811
N       -3.4001027198   -0.5586914752    3.0426386167
N        0.1311845658    0.1350126058   -0.7389896955
O        0.0352575434   -1.5613237251    2.9578161411
H       -5.1062370230   -1.0767189774    5.9038372009
H       -5.3716286779   -0.1805678879    3.6384551737
H       -1.1226703774   -1.9852389345    5.1009307596
H       -2.0825222780   -0.1364654330    0.8856938106
H        0.8383900146   -1.0822088565    0.7849704857
H       -1.3010482036    1.6871233390   -0.5541550660
H       -1.7912520916    0.3274426120   -1.6055173937
H       -0.6035284415    1.5170444055   -2.1722553104
H        1.2649109158   -0.6738837036   -2.3298097475
H        2.1931995168   -0.3740860462   -0.8437879486
H        1.7117628423    0.9887514680   -1.8626117998
24   

C       -4.2321305633   -1.0184014590    5.2397913588
C       -4.4227833070   -0.6467573494    3.8945270430
C       -2.0484020411   -1.4872748942    4.7980482411
C       -2.2158691585   -1.1168178991    3.4377707895
C       -1.2022955628   -0.8069492570    1.1327491529
C       -0.0831200804   -0.7225167118    0.3445910135
C       -1.0511098473   -1.1927808280    2.5234116666
C       -0.9490054626    0.9947632710   -1.1926186473
C        1.3969194590    0.0508676141   -1.4444756024
N       -3.0456723021   -1.4429192830    5.7078434512
N       -3.4306696060   -0.6903548043    2.9878308237
N        0.1175053245    0.0964684538   -0.7163210281
O        0.0386582717   -1.5742498599    2.9448381181
H       -5.0741992553   -0.9582424918    5.9190584008
H       -5.4038796630   -0.3125551099    3.5781488988
H       -1.0758800747   -1.8224403392    5.1397949304
H       -2.1488443760   -0.4115996714    0.7929373698
H        0.7925923668   -1.2637230759    0.6955714547
H       -1.3280942552    1.6081125345   -0.3689513327
H       -1.7709776671    0.4115790895   -1.6201917841
H       -0.5674757069    1.6691428558   -1.9657354233
H        1.2836688275   -0.5341240983   -2.3630242401
H        2.1796441363   -0.4090690678   -0.8327742688
H        1.7255014678    1.0625944535   -1.7018603051
24   

C       -4.1910168646   -0.9196952681    5.2363423081
C       -4.4144874990   -0.6940153372    3.8640378523
C       -1.9946489824   -1.3391589413    4.8070351854
C       -2.1950694249   -1.1149880083    3.4196197843
C       -1.2221540780   -0.9951239950    1.0789230888
C       -0.1104440819   -0.8616522626    0.2803462004
C       -1.0389014641   -1.2300990674    2.4984524936
C       -0.9410769036    1.0288671707   -1.0562648922
C        1.3948266396    0.0869946543   -1.4009068201
N       -2.9815012639   -1.2450867815    5.7244561916
N       -3.4328839768   -0.7875216041    2.9497748110
N        0.1101841978    0.0671360986   -0.6809429263
O        0.0735508725   -1.5155440926    2.9360017338
H       -5.0262730086   -0.8260885757    5.9202238480
H       -5.4128723437   -0.4341716049    3.5322719434
H       -1.0041238752   -1.5966845040    5.1640360000
H       -2.1866164115   -0.6548085740    0.7295935930
H        0.7678852490   -1.4147012505    0.6056383226
H       -1.3372748934    1.5289732023   -0.1667141087
H       -1.7552453321    0.5141549515   -1.5765417550
H       -0.5383959343    1.7985802777   -1.7221756526
H        1.2829666920   -0.3940973505   -2.3780587946
H        2.1680898714   -0.4446676266   -0.8372179649
H        1.7354051352    1.1169992866   -1.5453447840
24   

C       -4.1565174134   -0.8107501326    5.2137466748
C       -4.4050936199   -0.7370207396    3.8292907706
C       -1.9466885437   -1.1666163653    4.7953983254
C       -2.1723505650   -1.0950275497    3.3957702746
C       -1.2278250986   -1.1769450052    1.0417766891
C       -0.1363085179   -1.0005074660    0.2132370898
C       -1.0210837146   -1.2459163426    2.4735240764
C       -0.9492252931    1.0298550987   -0.9038770251
C        1.3673009223    0.0944771151   -1.3771480461
N       -2.9274537162   -1.0268309388    5.7136069407
N       -3.4297173609   -0.8768526888    2.9143485567
N        0.0891567358    0.0159717419   -0.6496483034
O        0.1106332433   -1.4231202947    2.9183076135
H       -4.9881930365   -0.6875021532    5.8972955511
H       -5.4182351913   -0.5593627249    3.4881604352
H       -0.9410064775   -1.3390962123    5.1611107866
H       -2.2125005242   -0.9076098900    0.6865581681
H        0.7473755677   -1.5660502604    0.5001516901
H       -1.3437893144    1.4193151818    0.0400977651
H       -1.7671955657    0.5945090632   -1.4867934516
H       -0.5342388980    1.8725379818   -1.4657687254
H        1.2361291924   -0.2660321797   -2.4026234118
H        2.1343433677   -0.5154585039   -0.8893481636
H        1.7283596347    1.1272868845   -1.4035316682
24   

C       -4.1297902383   -0.7227602554    5.1689835355
C       -4.3949976121   -0.8061027434    3.7882351383
C       -1.9052629786   -0.9787910196    4.7545426102
C       -2.1476230915   -1.0648386455    3.3586285631
C       -1.2183900738   -1.3388691455    1.0146078211
C       -0.1552188538   -1.1293624677    0.1424300428
C       -0.9971777362   -1.2357045441    2.4386459039
C       -0.9374288279    1.0226745930   -0.7295732677
C        1.3308246187    0.0748106157   -1.3800927291
N       -2.8848433947   -0.8085792655    5.6689699673
N       -3.4208425449   -0.9767202553    2.8773252003
N        0.0728800027   -0.0445770503   -0.6234618472
O        0.1485306528   -1.2881103612    2.8791933645
H       -4.9616155046   -0.5834425491    5.8492571768
H       -5.4203952310   -0.7279338708    3.4463765442
H       -0.8873096347   -1.0498054043    5.1200530585
H       -2.2231962081   -1.1606152108    0.6580859138
H        0.7282629636   -1.7216795004    0.3685996066
H       -1.2950407287    1.3128657710    0.2636175432
H       -1.7840468817    0.6826132715   -1.3344458309
H       -0.5084662657    1.9118261596   -1.2022940233
H        1.1547135668   -0.1552770022   -2.4359305564
H        2.0876414240   -0.6163622725   -0.9956336902
H        1.7313553532    1.0898333496   -1.2960139970
24   

C       -4.1395053790   -0.9098353002    5.3196752421
C       -4.4542214610   -1.3095135440    4.0062840588
C       -2.1238815085   -0.1347670007    4.5978000550
C       -2.4161993243   -0.5334039760    3.2668630476
C       -1.6524061687   -0.7380593230    0.8556710597
C       -0.5977991070   -0.9828354996   -0.0419927085
C       -1.3905066287   -0.3283084912    2.2149040421
C       -0.2485673149    1.3597664936   -0.6109752344
C        0.9706257717   -0.4926869044   -1.8446787531
N       -2.9749586597   -0.3150306873    5.6310851093
N       -3.6098840698   -1.1256946906    2.9760117210
N       -0.0331895475   -0.0787168568   -0.8505829540
O       -0.2998973756    0.1556793033    2.5055158126
H       -4.8638022857   -1.0914804946    6.1048559033
H       -5.4090269668   -1.7866516222    3.8190606004
H       -1.1700911867    0.3330506678    4.8130353560
H       -2.5796717186   -1.2676207099    0.6869931582
H       -0.4874054368   -2.0190437659   -0.3480379027
H       -1.3169207336    1.5780481977   -0.5153263006
H        0.1383324305    1.9494736168   -1.4478196877
H        0.2669435984    1.6728723360    0.3027224220
H        0.7436463256   -0.0477628237   -2.8185397353
H        0.9815258766   -1.5806862826   -1.9642070021
H        1.9677123588   -0.1719629287   -1.5257714431
24   

C       -4.0863891501   -0.8308552666    5.3035149999
C       -4.4016690721   -1.3390951454    4.0283424811
C       -2.1120461119   -0.0356857853    4.4952340831
C       -2.4053768599   -0.5424654449    3.2014549604
C       -1.6704110245   -0.8971669345    0.8017764989
C       -0.6427459250   -1.0746836508   -0.1276012808
C       -1.4059907922   -0.3667819504    2.1185802547
C       -0.2830106835    1.3211274110   -0.5257094748
C        0.9838824985   -0.4431901663   -1.8308165980
N       -2.9418906252   -0.1714179949    5.5522652810
N       -3.5779937793   -1.2012800840    2.9743719917
N       -0.0356841461   -0.1021281923   -0.8251401556
O       -0.3404360984    0.1935398439    2.3611015744
H       -4.7935273114   -0.9797076693    6.1109190286
H       -5.3401776323   -1.8633349261    3.8915552401
H       -1.1754153370    0.4839891584    4.6612742966
H       -2.5508085209   -1.5165085356    0.7008858190
H       -0.5773038054   -2.0691777531   -0.5591449980
H       -1.3431272810    1.4969594150   -0.3178396248
H       -0.0086677762    1.9437450742   -1.3828492621
H        0.3118800420    1.6376835666    0.3367069151
H        0.8045654326    0.1125039431   -2.7565109450
H        0.9610471742   -1.5112872435   -2.0690277875
H        1.9804195883   -0.1962228417   -1.4504125336
24   

C       -4.0703855904   -0.7897550614    5.2711227164
C       -4.3644159800   -1.3798532357    4.0265456712
C       -2.1193422272    0.0206857353    4.4225996334
C       -2.3916741006   -0.5674420950    3.1587218366
C       -1.6434146842   -1.0349694144    0.7869596276
C       -0.6717114441   -1.1362251631   -0.2011565663
C       -1.3992329374   -0.4120430837    2.0656800810
C       -0.3063985821    1.2885270217   -0.4852149062
C        0.9922381231   -0.4174767969   -1.8290491768
N       -2.9481043682   -0.0816113430    5.4842481308
N       -3.5414211848   -1.2765575279    2.9681211956
N       -0.0237050764   -0.1245103156   -0.8044243313
O       -0.3601641041    0.2054860688    2.2814049806
H       -4.7760203149   -0.9137958541    6.0840154232
H       -5.2859397812   -1.9395722246    3.9177758401
H       -1.2012052056    0.5799614408    4.5609070072
H       -2.4818573656   -1.7153178198    0.7310846364
H       -0.6436281460   -2.0894046917   -0.7209865905
H       -1.3510379135    1.4228879761   -0.1879889863
H       -0.1335797951    1.9183314889   -1.3632359499
H        0.3462110693    1.6343163139    0.3224534241
H        0.8390809329    0.2146040501   -2.7093541033
H        0.9374263632   -1.4618584952   -2.1521105579
H        1.9928735301   -0.2333096739   -1.4246661529
24   

C       -4.0643887272   -0.7849828165    5.2646533595
C       -4.3173485271   -1.4485454965    4.0484274677
C       -2.1369538594    0.0621134608    4.3981844908
C       -2.3688228819   -0.5980747267    3.1619399828
C       -1.5839466990   -1.1410987087    0.8205544347
C       -0.6917623998   -1.1569314940   -0.2359213362
C       -1.3770794820   -0.4434855110    2.0676102065
C       -0.3212536671    1.2827330817   -0.4374753668
C        0.9796611464   -0.3796691126   -1.8267963847
N       -2.9744204626   -0.0219834398    5.4546131906
N       -3.4852384621   -1.3644743313    2.9954760724
N       -0.0133507653   -0.1221979762   -0.7701481082
O       -0.3744174159    0.2367585770    2.2640300005
H       -4.7759439481   -0.8959907668    6.0742608776
H       -5.2144288264   -2.0495996393    3.9573226844
H       -1.2457255544    0.6672772510    4.5180322650
H       -2.3751073506   -1.8778104682    0.8005267658
H       -0.6996476445   -2.0718372204   -0.8211708216
H       -1.3525600414    1.3873928228   -0.0868134596
H       -0.2127969898    1.9162985389   -1.3229862380
H        0.3619472294    1.6491580648    0.3351107517
H        0.8488980900    0.3238402339   -2.6550315595
H        0.8747762572   -1.3921304859   -2.2293339446
H        1.9908764488   -0.2710594927   -1.4215110349
24   

C       -4.0803568784   -0.7796115318    5.2844747164
C       -4.2724936569   -1.5101067940    4.0958523461
C       -2.1776775855    0.1225981969    4.4189110668
C       -2.3492544483   -0.6030278652    3.2096373577
C       -1.4985354885   -1.1997773682    0.9056888591
C       -0.6867210470   -1.1501980025   -0.2079793935
C       -1.3497780076   -0.4371435998    2.1234417667
C       -0.2497335852    1.2842115420   -0.3635484166
C        0.9918296481   -0.3811867629   -1.7937829522
N       -3.0333031660    0.0441860505    5.4611552081
N       -3.4217362543   -1.4327340147    3.0574218182
N        0.0381600647   -0.1236503713   -0.7009454782
O       -0.3944272340    0.3105049780    2.3072300723
H       -4.8046916581   -0.8878440934    6.0830488584
H       -5.1373492224   -2.1579214669    4.0141216300
H       -1.3216697875    0.7784879379    4.5280464776
H       -2.2439860627   -1.9829697347    0.9121912074
H       -0.7388807205   -2.0377588716   -0.8318715108
H       -1.2720296012    1.3979764254    0.0099302238
H       -0.1559315091    1.9163246000   -1.2517512853
H        0.4548539523    1.6456564131    0.3920692760
H        0.8280621935    0.3193386547   -2.6187521758
H        0.8769307217   -1.3953310765   -2.1893552933
H        2.0171511018   -0.2688961174   -1.4269523431
24   

C       -4.1095597707   -0.8449938669    5.2761570597
C       -4.2333896980   -1.6261373003    4.1109550276
C       -2.2482658614    0.1418642470    4.4130660297
C       -2.3522307099   -0.6326165003    3.2263931874
C       -1.4375818495   -1.2360624583    0.9483084519
C       -0.7074214669   -1.1301505869   -0.2149245612
C       -1.3507522965   -0.4327926589    2.1469945195
C       -0.1226652571    1.2774684152   -0.3200818640
C        0.9586016596   -0.4134263275   -1.8363405435
N       -3.1175709449    0.0462553749    5.4424779812
N       -3.3686628660   -1.5321334509    3.0855169970
N        0.0783114649   -0.1372382502   -0.6875251050
O       -0.4527365076    0.3838369994    2.3215892193
H       -4.8424198397   -0.9690853957    6.0645818691
H       -5.0560880110   -2.3275279201    4.0365480352
H       -1.4375538132    0.8542368770    4.5135600786
H       -2.1425702745   -2.0555797300    0.9707089072
H       -0.8187711709   -1.9918035671   -0.8668599862
H       -1.1366344679    1.4446562916    0.0561362741
H        0.0088304569    1.9215902449   -1.1948324272
H        0.6049216039    1.5799128311    0.4396801767
H        0.7075097515    0.2418022105   -2.6765666668
H        0.8568983507   -1.4493625859   -2.1750776552
H        2.0031769849   -0.2498421075   -1.5527742059
24   

C       -4.1611186727   -1.0384143901    5.2441376672
C       -4.0862942186   -1.9025121671    4.1350926645
C       -2.6517524009    0.3524666412    4.2581057715
C       -2.5567550743   -0.5028449952    3.1272620175
C       -1.5270759145   -0.9974824839    0.8717003549
C       -0.7970772749   -0.9363281863   -0.3019619378
C       -1.6409912070   -0.1278209898    2.0157443199
C        0.3771967589    1.2555290736   -0.2985084213
C        0.6943085168   -0.4091398068   -2.1546134901
N       -3.4475947557    0.0978973635    5.3195775827
N       -3.2958658541   -1.6493280024    3.0774292166
N        0.0823792326   -0.0751386148   -0.8552301653
O       -0.9877372596    0.9032111977    2.1186673349
H       -4.8183910356   -1.3025644495    6.0640835013
H       -4.6863944120   -2.8048835322    4.1331145599
H       -2.0612703597    1.2608116714    4.2886895975
H       -2.1367271650   -1.8886463367    0.9241414744
H       -0.9811505963   -1.8191684797   -0.9074421747
H        0.9058823583    1.8693979731   -1.0338672917
H        1.0159553050    1.1666206665    0.5855124516
H       -0.5468034185    1.7858885438   -0.0541113180
H        0.5012353229    0.3888112755   -2.8789070218
H        0.2836794939   -1.3370232537   -2.5651107081
H        1.7754268550   -0.5353707273   -2.0388370976
24   

C       -4.0071928609   -0.9154338760    5.3367596918
C       -3.7829018857   -1.9202720515    4.3759254139
C       -2.9579245066    0.5962799387    3.9962462745
C       -2.7171073483   -0.3997292082    3.0119642429
C       -1.7574556139   -1.0296602556    0.7596176500
C       -1.0039566311   -0.9402337189   -0.3901528568
C       -1.9841780122   -0.0257730684    1.7746067114
C        0.7453562770    0.7198093246    0.1865139988
C        0.3726949865   -0.0397986656   -2.1824408910
N       -3.5994558259    0.3528046949    5.1597221280
N       -3.1444242526   -1.6793232857    3.2173017242
N       -0.0712110578   -0.0422867246   -0.7774563231
O       -1.6252787902    1.1381876077    1.6326191494
H       -4.5268943828   -1.1778127226    6.2506330963
H       -4.1359956399   -2.9247623271    4.5775242262
H       -2.6128018641    1.6090760114    3.8231479003
H       -2.2746427456   -1.9698635544    0.8924401508
H       -1.1832055177   -1.7591587774   -1.0808740702
H        1.7824671855    0.7822723169   -0.1568037921
H        0.7567564783    0.2293246299    1.1647416848
H        0.3579632775    1.7381554873    0.2913454205
H        0.1518608367    0.9293773732   -2.6409560344
H       -0.1388160126   -0.8145631937   -2.7623876248
H        1.4491275237   -0.2292618903   -2.2436664091
24   

C       -3.9778113049   -0.9011338828    5.3083369706
C       -3.6835406658   -1.9396016183    4.4036891879
C       -2.9951647537    0.5969879669    3.9036002555
C       -2.6862147592   -0.4327322163    2.9748610779
C       -1.6850483990   -1.1161754510    0.7567956178
C       -1.0075441760   -0.9746170104   -0.4359365312
C       -1.9688567400   -0.0803336883    1.7229003558
C        0.8101659833    0.5708106541    0.2341430610
C        0.3965139061   -0.0232578995   -2.1818587763
N       -3.6384138138    0.3773707688    5.0708563283
N       -3.0431078994   -1.7224342747    3.2414328763
N       -0.0246743276   -0.1127598080   -0.7730684033
O       -1.6759867216    1.0935563795    1.5188080549
H       -4.4963417833   -1.1452199220    6.2279262948
H       -3.9832798120   -2.9507512027    4.6527838300
H       -2.7067202722    1.6177225897    3.6805382162
H       -2.1602907506   -2.0737159309    0.9192769932
H       -1.2272216699   -1.7516352820   -1.1623714528
H        1.8552123380    0.5949294828   -0.0892238983
H        0.7786912100    0.0449518299    1.1933123039
H        0.4693642823    1.6014930006    0.3740891898
H        0.0951332817    0.9427326583   -2.5995835899
H       -0.0600621322   -0.8157930754   -2.7831831376
H        1.4831669857   -0.1256466931   -2.2644920564
24   

C       -3.9594286746   -0.8557569554    5.3282667463
C       -3.5979426784   -1.9146438201    4.4729260894
C       -3.0232054885    0.6301635280    3.8795388212
C       -2.6487685534   -0.4201075739    2.9993906971
C       -1.5889240426   -1.1393006235    0.8193245903
C       -1.0172925371   -0.9482983975   -0.4253713325
C       -1.9398225760   -0.0829904797    1.7389328737
C        0.8515542037    0.5268161542    0.2534598198
C        0.3847302156    0.0027482401   -2.1741569799
N       -3.6764699864    0.4270171358    5.0441973292
N       -2.9462518694   -1.7139435022    3.3139529588
N        0.0032157822   -0.1335389960   -0.7582619303
O       -1.7102472649    1.0949884972    1.4814316321
H       -4.4846786272   -1.0870920482    6.2473396206
H       -3.8547384369   -2.9281219680    4.7579437633
H       -2.7818828755    1.6539091500    3.6176518630
H       -2.0061880935   -2.1166688279    1.0186321662
H       -1.2946435578   -1.6895437089   -1.1691878268
H        1.8915568575    0.5605696048   -0.0850009134
H        0.8350791637   -0.0220300983    1.2000371310
H        0.5106340742    1.5526640373    0.4247171034
H        0.0570700020    0.9751400902   -2.5558586671
H       -0.0745044351   -0.7813845104   -2.7843673028
H        1.4702786297   -0.0787643732   -2.2879251386
24   

C       -3.9707277494   -0.8505266449    5.3386806057
C       -3.5332876899   -1.9131926883    4.5244189827
C       -3.0766864574    0.6402190457    3.8683745967
C       -2.6277317035   -0.4138405117    3.0288401134
C       -1.4873712244   -1.1348547852    0.8876276936
C       -1.0306995169   -0.9030799689   -0.4034627538
C       -1.9192635627   -0.0760583985    1.7687748210
C        0.8846509726    0.5201998620    0.2307988025
C        0.3629805057   -0.0056151770   -2.1889489591
N       -3.7467235240    0.4366506022    5.0233767923
N       -2.8637924976   -1.7119295694    3.3757202965
N        0.0270637522   -0.1544699043   -0.7631780163
O       -1.7523497441    1.1034336416    1.4713020811
H       -4.5075132848   -1.0825594496    6.2508885171
H       -3.7455179578   -2.9301146062    4.8328874394
H       -2.8838187447    1.6671277755    3.5800127974
H       -1.8350300262   -2.1317757261    1.1205755331
H       -1.3837082435   -1.6089841516   -1.1495504169
H        1.9095863404    0.6009969200   -0.1439061650
H        0.9231408778   -0.0467803679    1.1660585080
H        0.5104558857    1.5282604847    0.4347328521
H        0.0770960009    0.9924193593   -2.5366782819
H       -0.1629534036   -0.7477327401   -2.7978412904
H        1.4373626213   -0.1452852352   -2.3442426415
24   

C       -4.0151153090   -0.8742196207    5.3464161763
C       -3.4929305774   -1.9224815027    4.5639853793
C       -3.1631431905    0.6425980762    3.8776543749
C       -2.6304661977   -0.3968502380    3.0698894689
C       -1.3889933995   -1.0804451659    0.9687662336
C       -1.0378564453   -0.8233023927   -0.3585044527
C       -1.9153736038   -0.0392283091    1.8196601056
C        0.9334997359    0.5336410647    0.1897306874
C        0.3413140947   -0.0337104683   -2.2078881813
N       -3.8547498506    0.4187647735    5.0160764394
N       -2.8010507314   -1.7007334653    3.4324578352
N        0.0577879911   -0.1661547357   -0.7693851303
O       -1.8121160181    1.1408131061    1.4955971049
H       -4.5664180073   -1.1227083997    6.2455388607
H       -3.6571464943   -2.9451118997    4.8827375803
H       -3.0214617924    1.6739946493    3.5759117948
H       -1.6554854472   -2.0952207508    1.2296671044
H       -1.4867324861   -1.4868783131   -1.0917909548
H        1.9241454193    0.6945025528   -0.2465622220
H        1.0676189237   -0.0599190585    1.0994969457
H        0.5087205512    1.5074370702    0.4526842533
H        0.1338186429    0.9899341758   -2.5363460368
H       -0.2790569245   -0.7167964139   -2.7966420742
H        1.3902345480   -0.2708745470   -2.4113044816
24   

C       -4.0763919115   -0.9511301936    5.3573640007
C       -3.4490093730   -1.9579446634    4.5980889470
C       -3.3017109578    0.6225645691    3.9054891426
C       -2.6649021423   -0.3748668580    3.1210418619
C       -1.3085930983   -0.9621513571    1.0583168571
C       -1.0323479562   -0.7064833314   -0.2967186934
C       -1.9521130029    0.0311661123    1.8850022836
C        1.0141662965    0.5436755820    0.1305665079
C        0.3155677654   -0.0752017322   -2.2292659359
N       -4.0076670270    0.3493346845    5.0241846019
N       -2.7415356515   -1.6864665429    3.4872637742
N        0.0921035585   -0.1630569018   -0.7768243905
O       -1.9406120576    1.2099652828    1.5408652415
H       -4.6349662238   -1.2391248484    6.2400662247
H       -3.5431213148   -2.9893094406    4.9171453783
H       -3.2329926278    1.6603097256    3.6001074244
H       -1.4570455628   -1.9930954766    1.3478428846
H       -1.6013716299   -1.3056360594   -1.0015631271
H        1.9520420003    0.7776166408   -0.3826733568
H        1.2551488979   -0.0805801918    0.9968259460
H        0.5631924214    1.4800230380    0.4748140178
H        0.2029852652    0.9613756160   -2.5633040670
H       -0.4036626831   -0.6925731441   -2.7767224741
H        1.3216823990   -0.4265631600   -2.4785803898
24   

C       -3.8459198773   -0.9261330571    5.3569009437
C       -2.9460115906   -1.7533647429    4.6571812567
C       -4.0507549090    0.4018241810    3.5183212876
C       -3.1456957080   -0.4164592927    2.7930509631
C       -1.8982447211   -0.8740691575    0.6325614903
C       -1.3021433039   -0.3520241987   -0.5107160412
C       -2.8067528553   -0.0504125972    1.3965498142
C        0.9574736097   -0.1695880758    0.4190363495
C        0.4000384684    0.7270150229   -1.8943879891
N       -4.4092009643    0.1589668653    4.7978758645
N       -2.5894973392   -1.5132237595    3.3831764256
N       -0.0270937566    0.0595036147   -0.6529545642
O       -3.2926194354    0.9538368796    0.8818678495
H       -4.0896155747   -1.1760829974    6.3826952982
H       -2.5234940015   -2.6133765456    5.1634165869
H       -4.4829293669    1.2701859540    3.0345407010
H       -1.3955311784   -1.6726458612    1.1598880900
H       -2.0036499059    0.0842469279   -1.2178855821
H        1.2272470098   -1.2295297926    0.4639742250
H        0.5510776096    0.1422464423    1.3865728649
H        1.8664517803    0.4121399637    0.2362353812
H        1.0314313133    1.5909677548   -1.6648356010
H       -0.4628794497    1.0854257546   -2.4646645513
H        0.9632606869    0.0269027380   -2.5199852829
24   

C       -3.9506864138   -0.9757584982    5.3483397192
C       -2.9333187558   -1.7094530728    4.7076210374
C       -4.2201537901    0.2848907709    3.4712460299
C       -3.1971490733   -0.4395181417    2.8051947611
C       -1.7983620649   -0.7910668878    0.7179543541
C       -1.2554028616   -0.2463725925   -0.4298881545
C       -2.8383411926   -0.0645586309    1.4161157633
C        1.0814749842   -0.2560595790    0.3249874830
C        0.4147099201    0.7616254049   -1.9076750110
N       -4.6063512471    0.0277596138    4.7398496304
N       -2.5487428288   -1.4549813769    3.4445794323
N        0.0357580774    0.0866061450   -0.6547459977
O       -3.4150063698    0.8647912548    0.8559288634
H       -4.2107122913   -1.2317892295    6.3686090871
H       -2.4407683365   -2.5066935536    5.2518620253
H       -4.7243235283    1.0898685757    2.9490395731
H       -1.2344976956   -1.5260530983    1.2748669061
H       -1.9758924148    0.2299001151   -1.0910412586
H        1.2637881513   -1.3354754583    0.3204830894
H        0.7821043423    0.0570207885    1.3303735632
H        2.0186337842    0.2541742149    0.0811790291
H        1.1364091992    1.5597068074   -1.7077421316
H       -0.4583260911    1.2133467952   -2.3894245155
H        0.8601639775    0.0403655343   -2.6005854102
24   

C       -4.0268245594   -1.0458077029    5.3525695034
C       -2.9123818392   -1.6761807505    4.7654184361
C       -4.3376434891    0.1690518351    3.4521069690
C       -3.2172468793   -0.4515695164    2.8398303094
C       -1.6902465153   -0.6684362830    0.8245126522
C       -1.2055934150   -0.1196954082   -0.3397044608
C       -2.8377482657   -0.0525357718    1.4631490945
C        1.1808649420   -0.3082652510    0.2266669952
C        0.4148153502    0.7711611201   -1.9436188252
N       -4.7525957459   -0.1178924598    4.7050462201
N       -2.4984275543   -1.3914574359    3.5181206612
N        0.0877957243    0.1209706189   -0.6632451466
O       -3.4875789640    0.8033048581    0.8667182369
H       -4.3057528395   -1.3207589472    6.3628713087
H       -2.3673864348   -2.4164253615    5.3393319642
H       -4.8968301286    0.9154624664    2.8997555249
H       -1.0792690282   -1.3488993524    1.4004516970
H       -1.9440435603    0.3754477749   -0.9663355245
H        1.2618044555   -1.4000222403    0.2256417867
H        1.0021683161    0.0417940965    1.2483824090
H        2.1358687770    0.1086512004   -0.1082955911
H        1.2184165898    1.5013565898   -1.8064896558
H       -0.4537048565    1.3018867374   -2.3465481753
H        0.7336105159    0.0198635693   -2.6734879784
24   

C       -4.1019886822   -1.1252864817    5.3346206529
C       -2.9029174171   -1.6437034749    4.8076957175
C       -4.4357138495    0.0490709843    3.4128309166
C       -3.2305410228   -0.4593689326    2.8608585183
C       -1.5919901629   -0.5338276721    0.9257402065
C       -1.1515387412   -0.0024913018   -0.2593363654
C       -2.8262820690   -0.0314188366    1.4999832321
C        1.2482087783   -0.3905032619    0.1313054360
C        0.4143558256    0.7300140653   -1.9916629204
N       -4.8823009435   -0.2746897745    4.6457171272
N       -2.4571685345   -1.3219934251    3.5804767464
N        0.1306334915    0.1237472106   -0.6797407314
O       -3.5314387524    0.7501996261    0.8654954960
H       -4.4028665571   -1.4247319049    6.3315708245
H       -2.3173479797   -2.3258090705    5.4128224838
H       -5.0379491769    0.7350117735    2.8282645598
H       -0.9497875387   -1.1672387441    1.5208061434
H       -1.8987065408    0.5062574095   -0.8642133797
H        1.2195930757   -1.4844519916    0.1631631057
H        1.1939831173    0.0046753701    1.1507289187
H        2.2076468426   -0.0840555432   -0.2972200723
H        1.2818828777    1.3939465156   -1.9253852251
H       -0.4357828173    1.3250592551   -2.3403248766
H        0.6174793692   -0.0531356069   -2.7293550669
24   

C       -4.2876172309   -1.1537654516    5.2364046170
C       -4.3654766772   -0.4344051904    4.0278027057
C       -2.1669710975   -1.7966563497    4.7140638039
C       -2.2217158225   -1.0788082606    3.4903044748
C       -1.0817599591   -0.3640804278    1.3403986046
C       -0.0069655727   -0.4473399251    0.4962869455
C       -1.0405879459   -1.0945406155    2.5940329725
C       -1.1367627201    0.4857723869   -1.4835231702
C        1.3048950680   -0.2126310474   -1.5555534657
N       -3.1902213318   -1.8425765404    5.5944142781
N       -3.3474446177   -0.3880121794    3.1504090151
N        0.0416192895   -0.0866183743   -0.8087986407
O       -0.0342096330   -1.7227779080    2.9156953859
H       -5.1450286154   -1.1496500391    5.8989252086
H       -5.2785081318    0.1012056355    3.7958259742
H       -1.2648783991   -2.3407831690    4.9691809393
H       -1.9844444595    0.1534171921    1.0490733752
H        0.8897721193   -0.9187720325    0.8916979045
H       -1.3798934860    1.4633606796   -1.0547752638
H       -1.9979425488   -0.1819398291   -1.3794256032
H       -0.9413883962    0.6193369397   -2.5522011636
H        1.1161542576   -0.6026746759   -2.5605948134
H        1.9899834524   -0.9028353075   -1.0528736898
H        1.7914916171    0.7649010126   -1.6354560253
24   

C       -4.2752463188   -1.1565190011    5.2388798791
C       -4.3921390265   -0.5144207833    3.9905676084
C       -2.1137228006   -1.6876025373    4.7603119459
C       -2.2076025675   -1.0471801775    3.4965789756
C       -1.1081744482   -0.3966032440    1.3068941756
C       -0.0100437265   -0.4225271490    0.4893267757
C       -1.0238906758   -1.0417877648    2.6034543446
C       -1.0194911645    0.8580532677   -1.3553273090
C        1.3436782525   -0.0572064458   -1.5146177399
N       -3.1373217895   -1.7495688333    5.6392705665
N       -3.3736492411   -0.4517235113    3.1147270127
N        0.1003436170    0.1199367658   -0.7447931056
O        0.0175958840   -1.5871748978    2.9624760728
H       -5.1355492925   -1.1711831001    5.8974906778
H       -5.3368506748   -0.0544991735    3.7254090915
H       -1.1799706559   -2.1565854042    5.0485622690
H       -2.0258357205    0.0857367125    1.0025755625
H        0.8708504238   -0.9388040877    0.8636103453
H       -1.3293208502    1.6845845535   -0.7078710478
H       -1.8686146301    0.1874026788   -1.5221929552
H       -0.7216709554    1.2788312848   -2.3209406607
H        1.1848540662   -0.7785456747   -2.3227125582
H        2.1525893488   -0.4258526499   -0.8756838600
H        1.6643221889    0.8978130104   -1.9425535431
