29   

C        3.1035496182   -1.2030968108    1.7475705293
C        1.4094143614   -1.5964362049    0.0801022257
C        2.2017493897   -0.4164521666    2.4735293951
C        0.5139550225   -0.8075629858    0.8124702630
C        8.6198842360   -4.8922387628    2.0928951787
C        2.7327594007   -1.8046142647    0.5267251272
C        0.9008297965   -0.2086886687    2.0125518222
C        8.7125052080   -5.4066851871    0.8272830069
C        6.8303891291   -4.2771210386    0.5701293702
C        3.7024165726   -2.6399621917   -0.2168134320
C        9.8548956387   -6.2649956957    0.3804651277
C        3.4692370824   -3.0192585591   -1.6609711313
N        7.6922854409   -5.0439779014   -0.0420331371
N        4.7790732892   -3.0445971492    0.4268929721
N        5.7313935744   -3.8343936748   -0.1530658083
S        7.1883009685   -3.9127460358    2.2551142265
Cl      -0.2216724013    0.7730874070    2.9210347962
H        4.1037425708   -1.3357283568    2.1474641180
H        1.0390831676   -2.0530886955   -0.8288102478
H        2.5138338525    0.0377398408    3.4067080017
H       -0.4973292910   -0.6604227520    0.4515278440
H        9.3380634108   -5.0648471781    2.8840645907
H        9.5787551105   -7.3193244499    0.4681295522
H       10.0983059731   -6.0473160147   -0.6632949442
H       10.7387802376   -6.0742346177    0.9956405005
H        4.3787746197   -2.8489491030   -2.2441601264
H        3.2051098088   -4.0786449203   -1.7262216644
H        2.6817317139   -2.4232521834   -2.1245646640
H        5.6920570250   -4.1722184153   -1.1092321363
29   

C        3.1284952971   -1.0459908113    1.6552812826
C        1.3576945401   -1.7893401072    0.1977014390
C        2.2096946120   -0.2686615594    2.3701243111
C        0.4443880907   -1.0091683984    0.9171884555
C        8.6461428040   -4.8701770422    2.0732966583
C        2.7207557983   -1.8210723467    0.5526514399
C        0.8607744721   -0.2415817683    2.0077714771
C        8.7254221708   -5.3854155265    0.8070952084
C        6.8343393575   -4.2658334922    0.5729304993
C        3.7068963046   -2.6279424336   -0.1996191748
C        9.8255471467   -6.3019168741    0.3697767670
C        3.5191343883   -2.9059614776   -1.6734895488
N        7.6836969943   -5.0424241795   -0.0444749050
N        4.7652372490   -3.0595398709    0.4544350010
N        5.7283834443   -3.8245750876   -0.1403560348
S        7.2192559247   -3.8859458251    2.2483845399
Cl      -0.2829203586    0.7289161878    2.9018195263
H        4.1689883035   -1.0428034515    1.9642206865
H        0.9865825064   -2.3816140777   -0.6304197811
H        2.5450591020    0.3198822232    3.2160764429
H       -0.6012706256   -0.9991413332    0.6324405915
H        9.3650654198   -5.0540016448    2.8612491395
H        9.4317647514   -7.0530530717   -0.3207900689
H       10.6042047137   -5.7262858219   -0.1379248790
H       10.2625228743   -6.8121713518    1.2328085620
H        4.4213519747   -2.6238162246   -2.2239331555
H        3.3314137959   -3.9722442642   -1.8286437234
H        2.6870041605   -2.3325159225   -2.0883670065
H        5.6896741929   -4.1501182356   -1.1008370229
29   

C        3.1969415057   -0.8544876347    1.5023057106
C        1.4085632465   -1.9078045795    0.2737030946
C        2.2619441514   -0.0623809666    2.1791455923
C        0.4780706270   -1.1125809208    0.9535894437
C        8.6263771092   -4.9676057857    2.1600458326
C        2.7840038695   -1.7956411955    0.5432406672
C        0.8951406205   -0.1837849859    1.9117121559
C        8.7551843726   -5.4146519565    0.8722086014
C        6.8742066738   -4.2809589438    0.6247775342
C        3.7850856355   -2.6001014474   -0.1946948177
C        9.8717921396   -6.3085232918    0.4298145190
C        3.6586278056   -2.7858355416   -1.6899542826
N        7.7472776062   -5.0249610607    0.0003086069
N        4.8125516870   -3.0628703785    0.4843073387
N        5.7976010014   -3.8011919712   -0.1082150378
S        7.1934725595   -3.9914703715    2.3316719299
Cl      -0.2689346222    0.8059936020    2.7569676438
H        4.2528818755   -0.7408452641    1.7260611242
H        1.0531641783   -2.6220467329   -0.4605380974
H        2.5975480747    0.6541063875    2.9197461429
H       -0.5796215144   -1.2140637534    0.7401753822
H        9.3139451139   -5.1946081062    2.9645422947
H        9.5074709500   -7.0156899276   -0.3207509399
H       10.6731277035   -5.7073174164   -0.0081795450
H       10.2693358019   -6.8709372835    1.2793862832
H        4.5605442608   -2.4194142568   -2.1888038378
H        3.5319352085   -3.8467943007   -1.9234598583
H        2.8023959966   -2.2312942836   -2.0830979351
H        5.7993746547   -4.0747854574   -1.0855448944
29   

C        3.1945945422   -0.6967485437    1.3754722603
C        1.4329128488   -2.0557569734    0.4444382650
C        2.2396048144    0.0834491539    2.0382826770
C        0.4813810527   -1.2722744239    1.1087139641
C        8.5813587998   -5.0958125175    2.1797710235
C        2.8039912446   -1.7845038453    0.5790956423
C        0.8752822741   -0.1970398843    1.9117728585
C        8.7416839271   -5.4695584973    0.8722838357
C        6.8764265918   -4.3069198787    0.6404698816
C        3.8199422704   -2.5680245209   -0.1687465865
C        9.8625636592   -6.3475460690    0.4093530052
C        3.7329049996   -2.6503882328   -1.6765113982
N        7.7607961171   -5.0214180725   -0.0023471074
N        4.8242581378   -3.0710569808    0.5137605228
N        5.8233411013   -3.7781343131   -0.0929882253
S        7.1515339569   -4.1184241231    2.3689908283
Cl      -0.3142922020    0.7790066737    2.7372510987
H        4.2489013561   -0.4633632672    1.4831106495
H        1.1035273915   -2.8821205965   -0.1757148770
H        2.5566064903    0.9150252659    2.6567189228
H       -0.5737900520   -1.4956852104    1.0026792011
H        9.2449509664   -5.3748094133    2.9880321355
H        9.5132335878   -7.0064290823   -0.3906553158
H       10.6809079621   -5.7302089274    0.0290715240
H       10.2314073255   -6.9621968023    1.2353610693
H        4.6316508395   -2.2186357573   -2.1263259952
H        3.6472346702   -3.6951205812   -1.9884663316
H        2.8617783343   -2.0995779275   -2.0424482379
H        5.8517712442   -3.9945725182   -1.0841391786
29   

C        3.1355292131   -0.5266297060    1.1914526255
C        1.5006932017   -2.2121226453    0.6401358685
C        2.1465815879    0.2145302380    1.8494784263
C        0.5143797266   -1.4674457926    1.2982783321
C        8.5144713615   -5.2264854467    2.1985011770
C        2.8251535144   -1.7529678542    0.5870476221
C        0.8277571600   -0.2483108535    1.9086432852
C        8.7153215681   -5.5268622565    0.8777827555
C        6.8720235027   -4.3287072308    0.6509312563
C        3.8697234008   -2.5044761948   -0.1649324797
C        9.8415944857   -6.3914795002    0.4029086978
C        3.8223741245   -2.5064553167   -1.6770567680
N        7.7699290614   -5.0167478522   -0.0019837353
N        4.8397694837   -3.0598862898    0.5245016017
N        5.8509100549   -3.7456643126   -0.0866295468
S        7.0897469186   -4.2432496228    2.3956714469
Cl      -0.4051076359    0.6799258566    2.7256980522
H        4.1536093090   -0.1536807569    1.1532419291
H        1.2374740005   -3.1528886346    0.1692105612
H        2.4005141498    1.1576410712    2.3190947537
H       -0.5048801193   -1.8336436301    1.3374444465
H        9.1469338051   -5.5596447596    3.0111890968
H        9.5122528280   -6.9996731739   -0.4443243965
H       10.6789110387   -5.7641273704    0.0855230759
H       10.1757664659   -7.0564152500    1.2043595620
H        4.7269278923   -2.0414681642   -2.0794912318
H        3.7562115169   -3.5334256513   -2.0472583699
H        2.9519592097   -1.9466713601   -2.0314577797
H        5.9129297214   -3.9042679441   -1.0871413380
29   

C        3.0034815596   -0.3343971224    0.9185717896
C        1.6776434465   -2.3478872341    0.8599658865
C        1.9672035069    0.3257848807    1.5901135538
C        0.6432039906   -1.6842942826    1.5306907815
C        8.3997040903   -5.3778388457    2.2277009439
C        2.8677903795   -1.6776422547    0.5427311068
C        0.7772687381   -0.3415979489    1.8997440543
C        8.6546354123   -5.6114152133    0.9028103755
C        6.8638807611   -4.3391445469    0.6589578719
C        3.9649478917   -2.3725855586   -0.1962605202
C        9.7746813692   -6.4862646470    0.4318839989
C        3.9609854567   -2.3338121619   -1.7087062093
N        7.7697854756   -5.0209072220    0.0104661128
N        4.8802293927   -2.9973672227    0.5077720519
N        5.8994713198   -3.6813397769   -0.0919067566
S        6.9988384146   -4.3587804838    2.4139653715
Cl      -0.5155166703    0.4851459172    2.7330305194
H        3.9211998792    0.1968049900    0.6904356589
H        1.5592607653   -3.3903305891    0.5848867705
H        2.0834616721    1.3643944982    1.8769271555
H       -0.2725332629   -2.2120299773    1.7703054563
H        8.9814631933   -5.7765500690    3.0487046680
H        9.4621388687   -7.0462330393   -0.4540734973
H       10.6404610402   -5.8698519638    0.1752412914
H       10.0593062872   -7.1956997260    1.2140776349
H        4.8804553208   -1.8662671247   -2.0723712964
H        3.8967085652   -3.3497337644   -2.1086505067
H        3.1047890886   -1.7573816675   -2.0711125761
H        6.0066638069   -3.7859536889   -1.0956938429
29   

C        2.9266190872   -0.2049464314    0.7402586567
C        1.8909938115   -2.3438275429    1.1472007183
C        1.9100392253    0.4232367742    1.4702022498
C        0.8763292726   -1.7123767933    1.8763391428
C        8.1357927616   -5.7396622334    2.1602235026
C        2.9194927134   -1.5953817800    0.5557691179
C        0.8740193193   -0.3234362045    2.0410714573
C        8.5361218985   -5.7608975665    0.8509772125
C        6.7643798160   -4.4605385817    0.6168291272
C        4.0163370746   -2.2703719942   -0.1956486169
C        9.7646996181   -6.4807196544    0.3884201834
C        4.0553815740   -2.1532705588   -1.7033692952
N        7.7525282456   -5.0228021719   -0.0261090315
N        4.8574896389   -3.0114417667    0.4886448180
N        5.8799949247   -3.6835278908   -0.1186290513
S        6.6995917055   -4.7715838720    2.3483305049
Cl      -0.3926338231    0.4625895582    2.9504296829
H        3.7280406002    0.3903203998    0.3166403340
H        1.8874238808   -3.4235910709    1.0420979451
H        1.9234331940    1.4988108875    1.6022902447
H        0.0855952976   -2.3023767397    2.3247932988
H        8.6442724713   -6.2462629490    2.9703310630
H        9.4923532024   -7.4716645686    0.0152580185
H       10.2450892966   -5.9175325568   -0.4166902953
H       10.4749174041   -6.5910684621    1.2127732880
H        5.0062441647   -1.7152067221   -2.0196963342
H        3.9516207062   -3.1429241871   -2.1574650350
H        3.2387088417   -1.5167952818   -2.0562252802
H        6.0855869060   -3.6390370638   -1.1114848609
29   

C        2.7504928152   -0.1970145339    0.5370552073
C        2.0605864289   -2.3657431365    1.3334582245
C        1.7154596506    0.3975743898    1.2692190310
C        1.0273891766   -1.7671714273    2.0640859883
C        8.0294185134   -5.8618746583    2.1408784529
C        2.9241458514   -1.5903818988    0.5431104580
C        0.8423717434   -0.3813954954    2.0353435396
C        8.4921619413   -5.8096165648    0.8532296165
C        6.7413136595   -4.4825930935    0.6121123215
C        4.0504625404   -2.2175130858   -0.1945211894
C        9.7373510445   -6.5115607527    0.4079545881
C        4.1629668036   -2.0243869921   -1.6904131478
N        7.7559435243   -5.0145861023   -0.0150524417
N        4.8520469336   -3.0109660037    0.4805369302
N        5.8975444632   -3.6560360846   -0.1169197257
S        6.5912246251   -4.8944631865    2.3170991775
Cl      -0.4465381122    0.3635128867    2.9480365973
H        3.4246884655    0.4294678214   -0.0364584324
H        2.2005801231   -3.4407356341    1.3818228898
H        1.5879874041    1.4736481474    1.2513666277
H        0.3659585646   -2.3800320622    2.6652337292
H        8.4956356410   -6.4193847350    2.9429414396
H        9.4776652138   -7.4774993096   -0.0335492127
H       10.2579007666   -5.9073064255   -0.3404235492
H       10.4075201637   -6.6741844908    1.2568139179
H        5.1228788234   -1.5612502754   -1.9357816884
H        4.0954105979   -2.9911115846   -2.1977306889
H        3.3568073029   -1.3817270639   -2.0555697342
H        6.1519617558   -3.5526067812   -1.0939535027
29   

C        2.5840723532   -0.2594293576    0.3842318107
C        2.1942482577   -2.3597322355    1.5005114655
C        1.5297577337    0.3148048419    1.1051687983
C        1.1414795985   -1.7811024170    2.2188626639
C        7.9538334317   -5.9770891097    2.1176687199
C        2.9221799324   -1.6121161030    0.5576784838
C        0.7968750606   -0.4404410652    2.0254367854
C        8.4671568468   -5.8575277956    0.8538749102
C        6.7251310689   -4.5188469432    0.6135191672
C        4.0617295866   -2.2114743719   -0.1742817620
C        9.7297872060   -6.5361741360    0.4217696506
C        4.2462227872   -1.9359550012   -1.6495133009
N        7.7647217423   -5.0175376261    0.0000843335
N        4.8396507626   -3.0420066090    0.4859496865
N        5.9089028277   -3.6549766540   -0.1034418956
S        6.5082061211   -5.0195699056    2.2872895035
Cl      -0.5161066759    0.2800018532    2.9233365896
H        3.1445145064    0.3589138480   -0.3079298709
H        2.4517155769   -3.3991675399    1.6772536295
H        1.2776668103    1.3584376154    0.9574975794
H        0.5887522725   -2.3745367793    2.9377589964
H        8.3888049558   -6.5763447482    2.9070899147
H        9.4887395620   -7.4764252048   -0.0814541081
H       10.2796088671   -5.8931226019   -0.2713018013
H       10.3653645822   -6.7455109243    1.2868412011
H        5.1986205831   -1.4247404911   -1.8162804230
H        4.2476854212   -2.8769918333   -2.2072070936
H        3.4359112496   -1.3115843829   -2.0353786935
H        6.2025068955   -3.4980514027   -1.0621870358
29   

C        2.4325338196   -0.3423954475    0.2529355462
C        2.3247520730   -2.3078158544    1.6403792332
C        1.3612654590    0.2120848348    0.9646389780
C        1.2547401928   -1.7488624357    2.3483120285
C        7.8819728094   -6.0805048580    2.0832407988
C        2.9281775610   -1.6189496408    0.5693049311
C        0.7609121252   -0.4855622893    2.0156761641
C        8.4417420021   -5.9029666750    0.8462459200
C        6.7106583334   -4.5503647413    0.6049353163
C        4.0705077969   -2.2061535077   -0.1653726598
C        9.7187135850   -6.5641385168    0.4294669144
C        4.3228451297   -1.8549009390   -1.6136882773
N        7.7720200596   -5.0219741840    0.0076283847
N        4.8306781145   -3.0666682233    0.4792773747
N        5.9209441948   -3.6523160346   -0.0995923428
S        6.4317777458   -5.1284174216    2.2443253389
Cl      -0.5735366305    0.2112756076    2.9004727069
H        2.8795336927    0.2475921318   -0.5384150666
H        2.6875391514   -3.2895881538    1.9277511672
H        0.9919532631    1.1976758190    0.7062196648
H        0.8037963254   -2.2985224186    3.1662561584
H        8.2869608279   -6.7175368544    2.8589221172
H        9.4953474204   -7.4805784797   -0.1234016705
H       10.2931202037   -5.8919885592   -0.2143026923
H       10.3229929736   -6.8130504721    1.3064018112
H        5.2465461934   -1.2754568307   -1.6990488867
H        4.4248784875   -2.7685357707   -2.2065124056
H        3.4979605075   -1.2784909735   -2.0387322757
H        6.2502147613   -3.4487541535   -1.0377503669
29   

C        2.5516747244   -0.0660144021    0.8413084550
C        2.1134854981   -2.3680644565    1.3863078736
C        1.7248642547    0.3339871978    1.8990291097
C        1.2891261774   -1.9622127494    2.4414995116
C        5.7510064485   -7.3190758022   -1.1786917703
C        2.7611230709   -1.4265233467    0.5566655755
C        1.0851107657   -0.6076959333    2.7070391787
C        6.4006121197   -6.7057488555   -2.2164531570
C        5.2573744320   -4.9610214416   -1.4862466902
C        3.6282788696   -1.8676322497   -0.5591567609
C        7.3909846330   -7.4135978515   -3.0880194953
C        4.0616311173   -0.9102166669   -1.6450817028
N        6.1198796143   -5.3562634032   -2.3837322744
N        4.0199605892   -3.1259530903   -0.5634163226
N        4.8633384111   -3.6304372080   -1.5127869778
S        4.7125265583   -6.1913559590   -0.3508534300
Cl       0.0571627990   -0.1014356226    4.0247061584
H        3.0355309806    0.7173352834    0.2723777746
H        2.2431343941   -3.4318918201    1.2147929735
H        1.5794144420    1.3884643618    2.1028186344
H        0.8025956771   -2.7058078603    3.0618943972
H        5.8706163081   -8.3589552670   -0.9032715715
H        6.8980726113   -7.7571410187   -4.0014853526
H        8.2032472920   -6.7325002325   -3.3572854229
H        7.8136655947   -8.2750985629   -2.5633383742
H        5.1110394958   -0.6381317208   -1.5002896578
H        3.9552229448   -1.3832234021   -2.6255673812
H        3.4537533300   -0.0045947247   -1.6687901219
H        5.2900742298   -3.0799021049   -2.2508655241
29   

C        2.3237398333   -0.0866313973    0.6461110515
C        2.3095860020   -2.3330388081    1.5024690479
C        1.4352990074    0.2940095993    1.6608210445
C        1.4228729745   -1.9456657225    2.5124918333
C        5.6937220846   -7.3486252267   -1.1862345464
C        2.7842542972   -1.4107702184    0.5405130985
C        0.9767248496   -0.6281456168    2.6018122037
C        6.3688486705   -6.7427228072   -2.2119928237
C        5.3038112062   -4.9652925518   -1.4435166828
C        3.7223105480   -1.8444774327   -0.5209381216
C        7.3218659291   -7.4763271105   -3.1036596337
C        4.2523150168   -0.8930025920   -1.5680491953
N        6.1491588604   -5.3786229729   -2.3491233072
N        4.0927139521   -3.1098757424   -0.5242288915
N        4.9621873089   -3.6200887041   -1.4470850395
S        4.7068553838   -6.1939245955   -0.3327624682
Cl      -0.1301762839   -0.1429895934    3.8622323332
H        2.6198476063    0.7009910354   -0.0305638538
H        2.6257128249   -3.3709188020    1.4776085384
H        1.0940806521    1.3208693746    1.7225702035
H        1.0769564167   -2.6755212752    3.2351287918
H        5.7659889571   -8.3988219986   -0.9344778232
H        6.8061101752   -7.7880232354   -4.0159917091
H        8.1570337560   -6.8236997738   -3.3732957077
H        7.7159625938   -8.3607522813   -2.5951735221
H        5.3424032319   -0.8412242527   -1.4926092201
H        3.9954996850   -1.2687453966   -2.5628404542
H        3.8689063518    0.1214800455   -1.4963910959
H        5.4044168558   -3.0752678514   -2.1802725236
29   

C        2.0925954732   -0.1962426710    0.4886399674
C        2.4660840405   -2.2666189696    1.6558841352
C        1.1485216522    0.1703822585    1.4564822663
C        1.5218396791   -1.8948744139    2.6191625568
C        5.6649308364   -7.3363337641   -1.2459189666
C        2.7776713247   -1.4210588956    0.5685505681
C        0.8553807630   -0.6722899668    2.5301978915
C        6.3514903307   -6.7158383232   -2.2551932648
C        5.3426582655   -4.9353897047   -1.4206877587
C        3.7812420112   -1.8232405119   -0.4427294970
C        7.2730825880   -7.4474079379   -3.1808676615
C        4.3652058702   -0.8227846618   -1.4131727084
N        6.1721392600   -5.3418063120   -2.3439709953
N        4.1409074976   -3.0908014582   -0.4709179708
N        5.0337906452   -3.5827695386   -1.3807892603
S        4.7173183639   -6.1831024087   -0.3473767034
Cl      -0.3238540055   -0.2090557025    3.7318811464
H        2.2507356718    0.4943902021   -0.3295251583
H        2.9614243127   -3.2261436542    1.7649078070
H        0.6296410231    1.1183126083    1.3740228299
H        1.3028170171   -2.5620937759    3.4446213195
H        5.7063100162   -8.3964059501   -1.0313416840
H        6.7406458018   -7.7071294210   -4.0999182802
H        8.1281037456   -6.8138228227   -3.4329847071
H        7.6398680764   -8.3632476398   -2.7088961715
H        5.4492835020   -0.9525970008   -1.4781750743
H        3.9346161071   -0.9777236214   -2.4065851585
H        4.1938807393    0.2087721442   -1.1022946216
H        5.4804552535   -3.0277539288   -2.1035387164
29   

C        1.9062605249   -0.2971349334    0.3442880173
C        2.5575167278   -2.1525009751    1.7347213655
C        0.9396336466    0.0656740948    1.2906441690
C        1.5898499734   -1.7855811297    2.6767990393
C        5.6950330521   -7.3023659861   -1.2517381515
C        2.7426732884   -1.4071612947    0.5531882423
C        0.7740038613   -0.6719282179    2.4655274748
C        6.3763685870   -6.6718666958   -2.2583595658
C        5.3241308721   -4.9094301478   -1.4391526393
C        3.7547389855   -1.8085589353   -0.4487221090
C        7.2618242535   -7.4001853761   -3.2211908732
C        4.4070082073   -0.7809911037   -1.3451221020
N        6.1554582562   -5.3052211575   -2.3654042995
N        4.0862601482   -3.0818097637   -0.5018857388
N        4.9960590071   -3.5612794110   -1.4013916047
S        4.7279053076   -6.1629830071   -0.3562474918
Cl      -0.4338447891   -0.2158195621    3.6412264259
H        1.9802279026    0.2926301700   -0.5617135152
H        3.1716967492   -3.0264374327    1.9273157665
H        0.3038088004    0.9251441895    1.1128822252
H        1.4675431115   -2.3716807428    3.5801468801
H        5.7425221727   -8.3635094939   -1.0438308741
H        7.1818708936   -6.9493952595   -4.2144439519
H        8.3004973990   -7.3378445321   -2.8854922373
H        6.9693738545   -8.4519425214   -3.2875929021
H        5.4952945045   -0.8792539638   -1.2945971516
H        4.0877240085   -0.9356819478   -2.3797187962
H        4.1551893244    0.2375904224   -1.0410857827
H        5.4513733852   -2.9974257933   -2.1118531350
29   

C        1.7822378618   -0.4242069420    0.2297570962
C        2.6811494221   -2.0083720733    1.8082590440
C        0.7978319590   -0.0637346203    1.1582324567
C        1.6950692776   -1.6448028029    2.7327272789
C        5.5965511358   -7.3204354028   -1.3379868020
C        2.7515270176   -1.3907701377    0.5467547359
C        0.7470922548   -0.6670369244    2.4183268669
C        6.3394091934   -6.6762819518   -2.2909792792
C        5.2957336435   -4.9135816733   -1.4614179251
C        3.7694402211   -1.8021769389   -0.4472620673
C        7.2491085486   -7.3968479472   -3.2368940104
C        4.4936446477   -0.7595532068   -1.2687349946
N        6.1585556963   -5.3014253122   -2.3619036483
N        4.0665438304   -3.0817577671   -0.5199764142
N        5.0015544069   -3.5587673053   -1.3944336056
S        4.6187448740   -6.1849332102   -0.4491775202
Cl      -0.4830210230   -0.2155696496    3.5725308962
H        1.7821565197    0.0493279186   -0.7455877763
H        3.3985604232   -2.7794713122    2.0703271860
H        0.0594283495    0.6866933958    0.9010462421
H        1.6597585568   -2.1284788139    3.7018986889
H        5.6070597387   -8.3886778650   -1.1640889254
H        7.2326598584   -6.9073674326   -4.2147992963
H        8.2711680863   -7.3807419749   -2.8488770260
H        6.9281870802   -8.4353587467   -3.3578515096
H        5.5727043257   -0.8430566951   -1.1098927262
H        4.2801073800   -0.9086644485   -2.3309887192
H        4.1834110963    0.2489893557   -0.9824862346
H        5.5053888498   -2.9856993044   -2.0635889834
29   

C        1.6701449596   -0.5938102025    0.1485782222
C        2.8006293432   -1.8317745686    1.8815290835
C        0.6669971840   -0.2407792840    1.0595964500
C        1.7954956382   -1.4767235262    2.7888570798
C        5.4989241249   -7.3299994304   -1.4341850367
C        2.7624172527   -1.3778752743    0.5533502181
C        0.7223638182   -0.6747698789    2.3879843285
C        6.3013875313   -6.6756474029   -2.3301607144
C        5.2770547814   -4.9118220444   -1.4791032210
C        3.8015750236   -1.7925242901   -0.4233856540
C        7.2277368475   -7.3902178518   -3.2643755915
C        4.5946035282   -0.7368428138   -1.1611385888
N        6.1659036388   -5.2939905147   -2.3564449484
N        4.0616339311   -3.0768665224   -0.5262994221
N        5.0212851666   -3.5515439496   -1.3747465678
S        4.5188079680   -6.1969239316   -0.5448962067
Cl      -0.5309059614   -0.2335889604    3.5210593166
H        1.5966878141   -0.2587378887   -0.8801442267
H        3.6165245077   -2.4697444908    2.2053470207
H       -0.1677826847    0.3701396784    0.7364487188
H        1.8421214828   -1.8308455645    3.8120327792
H        5.4690612145   -8.4036640644   -1.3006377324
H        7.2698400845   -6.8635622602   -4.2219889515
H        8.2318551585   -7.4238209031   -2.8330753212
H        6.8788066455   -8.4117853499   -3.4398263769
H        5.6568418567   -0.8295202069   -0.9171144763
H        4.4664563814   -0.8600730862   -2.2402691461
H        4.2575123250    0.2641391444   -0.8771463273
H        5.5725299348   -2.9712951722   -1.9988157275
29   

C        1.5738173093   -0.8245973682    0.0642534545
C        2.8953145812   -1.5926248458    1.9288131297
C        0.5486251815   -0.4584048544    0.9450250370
C        1.8682688278   -1.2253160484    2.8064101478
C        5.3814043258   -7.3487716037   -1.5734541808
C        2.7670216958   -1.3807728306    0.5480870660
C        0.6877550409   -0.6513013722    2.3235007808
C        6.2488370610   -6.6875204215   -2.4011885817
C        5.2521756507   -4.9240709867   -1.5170318745
C        3.8483878308   -1.7989052280   -0.3897328649
C        7.1902768907   -7.3960679069   -3.3248466217
C        4.7045268840   -0.7374621044   -1.0444716605
N        6.1664625290   -5.3017580335   -2.3698957219
N        4.0608634122   -3.0862388755   -0.5398469771
N        5.0426115753   -3.5605920372   -1.3627021100
S        4.4033977240   -6.2184492537   -0.6784346357
Cl      -0.5920845818   -0.1932711925    3.4195836264
H        1.4412452020   -0.6788689177   -1.0021704843
H        3.7982668629   -2.0515207428    2.3174502670
H       -0.3671631779   -0.0252151294    0.5601029314
H        1.9820887920   -1.3910994443    3.8713190975
H        5.3052493284   -8.4252632116   -1.4907685947
H        7.2944904994   -6.8309267848   -4.2553906325
H        8.1719942722   -7.4860905251   -2.8520729581
H        6.8131667388   -8.3952550077   -3.5605596989
H        5.7483987284   -0.8609128501   -0.7420251727
H        4.6376381464   -0.8222477013   -2.1327901520
H        4.3673845672    0.2596301607   -0.7466335791
H        5.6456105720   -2.9758082023   -1.9322869048
29   

C        1.5613619961   -1.0618340796    0.1393338493
C        3.0559647506   -1.2965200743    2.0166981502
C        0.5459934549   -0.6347824588    1.0038620223
C        2.0388043500   -0.8682550866    2.8782198140
C        5.0980200494   -7.3557212750   -1.8985164835
C        2.8286965820   -1.3933844943    0.6363144241
C        0.7758317323   -0.5313758402    2.3799519301
C        6.1297810819   -6.7054873357   -2.5210559010
C        5.1478008790   -4.9439215758   -1.6168849133
C        3.9189654320   -1.8241890141   -0.2901936870
C        7.1957128292   -7.4211591142   -3.2912780718
C        4.8340175014   -0.7719456378   -0.8776584857
N        6.1573697383   -5.3276685228   -2.3514005795
N        4.0389136494   -3.1070756593   -0.5423969527
N        5.0280926861   -3.5863700183   -1.3536342647
S        4.0753991212   -6.2229960241   -1.0578124673
Cl      -0.4903971809    0.0060711367    3.4555824865
H        1.3645393404   -1.1406300490   -0.9243746364
H        4.0282584975   -1.5581069628    2.4199253487
H       -0.4307829944   -0.3819065789    0.6083330501
H        2.2260149615   -0.7965983032    3.9432640506
H        4.9412183858   -8.4264779889   -1.9173277327
H        6.9517974978   -7.4078538665   -4.3569844573
H        8.1592259761   -6.9259026299   -3.1411717601
H        7.2775057388   -8.4587940434   -2.9554782991
H        5.8671217935   -0.9629798967   -0.5737101420
H        4.7750437868   -0.7935855022   -1.9695989717
H        4.5417980002    0.2225972278   -0.5281338540
H        5.7462988837   -3.0115621897   -1.7823526360
29   

C        1.5517503003   -1.4138460068    0.2083646926
C        3.0730734232   -0.9840269937    2.0299812966
C        0.4851172388   -0.9630954077    0.9954172159
C        2.0038544396   -0.5330486916    2.8134994433
C        5.0096547099   -7.3234843126   -2.0642916920
C        2.8566745827   -1.4376884628    0.7203230245
C        0.7010319563   -0.5184337740    2.3041088295
C        6.0846007096   -6.6791111215   -2.6157807090
C        5.1454417817   -4.9376181780   -1.6309124078
C        3.9945139527   -1.8595807158   -0.1449185505
C        7.1447519688   -7.3899473356   -3.3983090842
C        4.9367950362   -0.8033812494   -0.6791110319
N        6.1610206106   -5.3165851200   -2.3595511953
N        4.0738118200   -3.1277971993   -0.4767565281
N        5.0702795523   -3.5952630585   -1.2858907007
S        4.0066030176   -6.2034026119   -1.1840780553
Cl      -0.6299560930    0.0478165424    3.2823674456
H        1.3682464834   -1.7544993466   -0.8052030649
H        4.0766423965   -0.9838025407    2.4410103242
H       -0.5202063288   -0.9562736166    0.5907475580
H        2.1814193347   -0.1891043559    3.8257732033
H        4.8121818529   -8.3838924358   -2.1537615048
H        6.9246409267   -7.3175860948   -4.4668205405
H        8.1195018204   -6.9332899514   -3.2046675119
H        7.1873263088   -8.4446010022   -3.1119045808
H        5.9602739659   -1.0204875122   -0.3605991236
H        4.9005171282   -0.7891461867   -1.7722100505
H        4.6527435366    0.1845653941   -0.3051352122
H        5.8237379920   -3.0244554962   -1.6553550587
29   

C        1.5734138330   -1.6549796411    0.2956960588
C        3.0681684381   -0.7371114089    1.9512018869
C        0.4762250385   -1.2065255343    1.0407443572
C        1.9677770204   -0.2899191748    2.6926018187
C        4.9248679517   -7.2829213217   -2.1787181771
C        2.8841721437   -1.4364733401    0.7476348019
C        0.6628428911   -0.5209340643    2.2454059537
C        6.0451887154   -6.6616803451   -2.6623067646
C        5.1346882372   -4.9224415421   -1.6470944875
C        4.0419314028   -1.8614908119   -0.0795509985
C        7.1079660938   -7.3842665035   -3.4303657758
C        5.0412538034   -0.8269699491   -0.5473965324
N        6.1634792372   -5.3139282065   -2.3500539722
N        4.0872853113   -3.1177259081   -0.4634139333
N        5.0964995528   -3.5922831865   -1.2524479032
S        3.9307287339   -6.1575702806   -1.2950939609
Cl      -0.7070387366    0.0398433454    3.1717534801
H        1.4101312911   -2.1833173219   -0.6380148179
H        4.0707702155   -0.5431254307    2.3160588550
H       -0.5303510703   -1.3900537108    0.6835413204
H        2.1222441962    0.2427237375    3.6237159897
H        4.6907663288   -8.3305350491   -2.3172111356
H        6.9332213828   -7.2641615568   -4.5029534011
H        8.0908044043   -6.9735236567   -3.1823864744
H        7.0993854504   -8.4495760054   -3.1830367221
H        6.0404237993   -1.0824485366   -0.1833737337
H        5.0599315218   -0.7937407702   -1.6405740193
H        4.7717926349    0.1649791033   -0.1737765743
H        5.8863575746   -3.0382608198   -1.5674365189
29   

C        1.6171136347   -1.8208713071    0.4035976886
C        3.0576185094   -0.5343239063    1.8482598576
C        0.5032510054   -1.3869787053    1.1321673394
C        1.9397941883   -0.1034160289    2.5729855324
C        4.8418289311   -7.2307579878   -2.2737880000
C        2.9136934256   -1.4067286714    0.7549840386
C        0.6537325075   -0.5252301237    2.2226549974
C        6.0039735865   -6.6419004577   -2.6952545739
C        5.1249740611   -4.8977881493   -1.6608578017
C        4.0806579251   -1.8407763793   -0.0473040898
C        7.0654356511   -7.3839614583   -3.4463705450
C        5.1489215952   -0.8440212651   -0.4366326053
N        6.1639358703   -5.3101655592   -2.3363235039
N        4.0991608250   -3.0873586670   -0.4675207961
N        5.1227030480   -3.5793412146   -1.2270232753
S        3.8598815910   -6.0924040191   -1.3931916336
Cl      -0.7374468613    0.0149738260    3.1292906632
H        1.4747343557   -2.4885461492   -0.4401615574
H        4.0421916082   -0.1929437272    2.1476525208
H       -0.4886436885   -1.7208833849    0.8508743367
H        2.0661286907    0.5641414495    3.4173574023
H        4.5715578628   -8.2631835871   -2.4541892825
H        6.9372052092   -7.2231664023   -4.5202084142
H        8.0538349010   -7.0225924134   -3.1486401485
H        7.0040456296   -8.4551995379   -3.2347050841
H        6.1084465252   -1.1386249873   -0.0022013961
H        5.2491390028   -0.8110660326   -1.5254115787
H        4.8945611864    0.1601478889   -0.0871245906
H        5.9459080067   -3.0483169161   -1.4923101897
29   

C        1.6594230187   -1.9602811568    0.5259989799
C        3.0169009613   -0.3770498349    1.7360611028
C        0.5367056541   -1.5495755450    1.2541765326
C        1.8894170149    0.0288526800    2.4602586825
C        4.7739595048   -7.1695801534   -2.3793303554
C        2.9227413522   -1.3801659598    0.7512358250
C        0.6402507145   -0.5514070005    2.2260711285
C        5.9780236996   -6.6167280187   -2.7251806616
C        5.1154487094   -4.8668307820   -1.6867506496
C        4.0968534930   -1.8178811448   -0.0356499507
C        7.0468543514   -7.3802604746   -3.4436038799
C        5.2280385839   -0.8607286212   -0.3340763512
N        6.1708246928   -5.3024366124   -2.3208826297
N        4.0986071906   -3.0531319526   -0.4919760275
N        5.1400623176   -3.5614271074   -1.2156575792
S        3.7932012868   -6.0167299996   -1.5165039898
Cl      -0.7622194276   -0.0415527974    3.1329007695
H        1.5424897225   -2.7380761345   -0.2219602762
H        3.9683935523    0.0890187710    1.9635368207
H       -0.4260063322   -2.0099157689    1.0650685128
H        1.9805374078    0.7996769893    3.2166384319
H        4.4734492177   -8.1850990962   -2.6027713239
H        6.9859070306   -7.1779369899   -4.5163454743
H        8.0316619946   -7.0738382211   -3.0797190473
H        6.9277139281   -8.4541683741   -3.2743212747
H        6.1325970569   -1.1807126627    0.1909473032
H        5.4312576988   -0.8473756514   -1.4088358837
H        4.9819252383    0.1600353802   -0.0326201859
H        5.9954225844   -3.0556477803   -1.4219324827
29   

C        1.7214130773   -2.0872880607    0.6633168289
C        2.9509881643   -0.2399091007    1.6037912598
C        0.5889486782   -1.6977835295    1.3878216890
C        1.8130204205    0.1426233362    2.3243524153
C        4.7133423676   -7.1099032551   -2.4877525493
C        2.9282127725   -1.3613675554    0.7464252832
C        0.6224756858   -0.5791743604    2.2220835001
C        5.9541540926   -6.5965321509   -2.7559769339
C        5.1058104178   -4.8407769279   -1.7158227841
C        4.1126750862   -1.8012238488   -0.0246090483
C        7.0295638263   -7.3830887168   -3.4388535990
C        5.3029071174   -0.8940093406   -0.2340282901
N        6.1755075624   -5.3015405121   -2.3066224825
N        4.0989032173   -3.0230802595   -0.5190195788
N        5.1550180001   -3.5501585552   -1.2075248503
S        3.7335557965   -5.9415310671   -1.6448988284
Cl      -0.7923966329   -0.0965329986    3.1245457380
H        1.6456024718   -2.9641715796    0.0283092818
H        3.8493543782    0.3469841637    1.7461385847
H       -0.3272636417   -2.2704163433    1.3032294286
H        1.8514389295    1.0069256454    2.9771362984
H        4.3863732180   -8.1066809866   -2.7542947023
H        7.0384414827   -7.1451346604   -4.5059578055
H        8.0038261378   -7.1310004170   -3.0105719691
H        6.8565614176   -8.4555722935   -3.3124439254
H        6.1480354828   -1.2495289856    0.3623659126
H        5.5929574977   -0.8972197812   -1.2887448557
H        5.0872022159    0.1419126900    0.0315018309
H        6.0386707031   -3.0731394722   -1.3544111277
29   

C        1.8203703882   -2.2238510969    0.9047885438
C        2.8406084402   -0.1130713768    1.4469935544
C        0.6603739642   -1.8349766474    1.5842424211
C        1.6755521134    0.2672555456    2.1244889524
C        4.7058899471   -7.0544249248   -2.5561943705
C        2.9452913146   -1.3747898125    0.8137165683
C        0.5759621985   -0.5869687695    2.1998595151
C        5.9607991530   -6.5557416108   -2.7834268857
C        5.1312108194   -4.8288645809   -1.6816797652
C        4.1542549362   -1.8260670897    0.0859375352
C        7.0302658310   -7.3334971231   -3.4854282239
C        5.3867781581   -0.9620058969   -0.0444295951
N        6.2010635755   -5.2863429599   -2.2747127709
N        4.1309386214   -3.0313414921   -0.4486928652
N        5.1968345748   -3.5612605442   -1.1201712056
S        3.7364713326   -5.9033502418   -1.6782668680
Cl      -0.8727940376   -0.1041859176    3.0467820102
H        1.8260301671   -3.2072409309    0.4459138458
H        3.6422639838    0.6112591582    1.4424232518
H       -0.1856404957   -2.5104389244    1.6345920845
H        1.6204944563    1.2393019256    2.6007091319
H        4.3630580361   -8.0315106879   -2.8713025121
H        7.0575407656   -7.0512001238   -4.5413712617
H        8.0033821278   -7.1182801642   -3.0350172247
H        6.8355609215   -8.4068018559   -3.4065798047
H        6.2346003923   -1.4616474471    0.4332707946
H        5.6224323338   -0.8205995821   -1.1033143001
H        5.2872375909    0.0249250904    0.4016099010
H        6.0899261515   -3.0938072604   -1.2378138726
