29   

C        2.3373863223   -3.4175167338    0.5394574449
C        3.2057927303   -2.6137494529    1.2789456330
C        0.9605719464   -3.3089606236    0.7374380403
C        2.6974110174   -1.7147395468    2.2231506994
C        0.4527165716   -2.4094940114    1.6811961006
C       -0.2697988610   -3.4410315505    5.7065915316
C        0.2958669879   -4.6954703475    5.9458784153
C       -1.2377413740   -4.2886544709    3.6679111366
C        1.3108384069   -1.6114618286    2.4591259217
C       -1.0285229012   -3.2198493387    4.5523195103
C        0.1116863295   -5.7531708711    5.0473063104
C       -0.6689207667   -5.5476581518    3.8952622291
C        0.8672672910   -0.6482524085    3.4698439638
C       -0.3002261262   -0.4753195610    4.1185626354
O       -2.5055169467   -1.5716467314    2.9528605980
O       -2.5641689688   -1.1442527564    5.3507437734
S       -1.7399171086   -1.5730456269    4.2105513115
Cl       0.8509617912   -7.3050734076    5.3769352590
Cl      -0.9367026146   -6.8342518860    2.7390341212
H        2.7285167535   -4.1143984234   -0.1935409027
H        4.2758806704   -2.6866508263    1.1204840122
H        0.2799213910   -3.9132088271    0.1480096573
H        3.3966816315   -1.1045059266    2.7837883187
H       -0.6189951824   -2.3234377120    1.7496466523
H       -0.1156007689   -2.6354053698    6.4191881301
H        0.8885605776   -4.8569654968    6.8385708582
H       -1.8473702862   -4.1448117905    2.7802409314
H        1.6372445508    0.0482528890    3.7856286416
H       -0.3961476755    0.3674611213    4.7864050237
29   

C        2.1695267264   -3.6126207754    0.7405054723
C        3.0592757113   -2.9286046041    1.5709395560
C        0.8128939443   -3.2853473474    0.7629140209
C        2.5900918421   -1.9283867277    2.4300300133
C        0.3441892827   -2.2866433707    1.6234715197
C       -0.1897578611   -3.3958524803    5.6695276501
C        0.4533971716   -4.6204234360    5.8650145473
C       -1.1030283377   -4.2300015176    3.6006575326
C        1.2209392305   -1.6029353583    2.4840970223
C       -0.9594502058   -3.1818514793    4.5215474085
C        0.3372780726   -5.6542883254    4.9277936633
C       -0.4555003177   -5.4574944834    3.7827946433
C        0.7885850688   -0.5637590292    3.4267177528
C       -0.3743241938   -0.4020685206    4.0822573255
O       -2.5656564396   -1.5920442997    2.9921008245
O       -2.5579696198   -1.1823607387    5.3950337453
S       -1.7572270319   -1.5669475368    4.2225765044
Cl       1.1769527887   -7.1656291851    5.2000006942
Cl      -0.6379475409   -6.7134873665    2.5773122399
H        2.5308844884   -4.3878575403    0.0739077217
H        4.1149764615   -3.1746401399    1.5501947608
H        0.1210755975   -3.7982227602    0.1039967457
H        3.2995565785   -1.4152998676    3.0695725094
H       -0.7034731803   -2.0267112884    1.5716840089
H       -0.0854234088   -2.6067117170    6.4090927801
H        1.0555979725   -4.7762058474    6.7522380762
H       -1.7167075505   -4.0902433088    2.7152365681
H        1.5674986066    0.1264643223    3.7343495261
H       -0.4956048890    0.4577353840    4.7236196899
29   

C        1.9326369711   -3.7695920692    0.8862136462
C        2.8009556156   -3.2754133665    1.8624557342
C        0.6718839693   -3.1914786868    0.7240432691
C        2.4073416923   -2.2072085649    2.6767166036
C        0.2759385840   -2.1293271651    1.5442463386
C       -0.1579382900   -3.3603252218    5.6472197752
C        0.5591853287   -4.5469325065    5.8200743984
C       -0.9770649935   -4.1887318439    3.5373199301
C        1.1372304989   -1.6222771799    2.5329554373
C       -0.9159726644   -3.1604706422    4.4889670412
C        0.5286233968   -5.5566163553    4.8501862332
C       -0.2559371771   -5.3775863354    3.6969407301
C        0.7369044206   -0.5324933946    3.4406843584
C       -0.4296955076   -0.3681635046    4.0831935455
O       -2.5614835572   -1.6193709384    2.9513143826
O       -2.6062240304   -1.2313171642    5.3626426554
S       -1.7774391889   -1.5763037094    4.1972024083
Cl       1.4663468088   -7.0147252670    5.0904438713
Cl      -0.3321654220   -6.6043395765    2.4505004254
H        2.2366054364   -4.5965915430    0.2540767545
H        3.7802503783   -3.7227062536    1.9901074881
H       -0.0014140245   -3.5629522635   -0.0404959336
H        3.0918398121   -1.8433490430    3.4346568797
H       -0.6965274068   -1.6805628422    1.3785421370
H       -0.1149026573   -2.5865922780    6.4087825592
H        1.1555054774   -4.6901608287    6.7133199494
H       -1.5760607150   -4.0577738333    2.6406123865
H        1.5358007766    0.1197928393    3.7782416158
H       -0.5693350254    0.4876350431    4.7259635633
29   

C        1.8052812814   -3.8087496577    0.9479418954
C        2.6099214062   -3.4180583628    2.0215138656
C        0.6379492636   -3.0968718519    0.6610352999
C        2.2526323354   -2.3112453346    2.8003170364
C        0.2768124195   -1.9969783327    1.4467770150
C       -0.1303950883   -3.3373836031    5.6285100418
C        0.6108531321   -4.5084479612    5.8070240705
C       -0.8909263389   -4.1702604502    3.4983140543
C        1.0907881315   -1.5767877120    2.5123706319
C       -0.8722663201   -3.1478445433    4.4580382395
C        0.6184887650   -5.5136908832    4.8320245060
C       -0.1499424070   -5.3458641691    3.6663926157
C        0.6919943487   -0.4564548508    3.3922654672
C       -0.4509102876   -0.3416796510    4.0807140972
O       -2.5166969105   -1.6376959273    2.8909319730
O       -2.6333067709   -1.2689043346    5.3056528984
S       -1.7680604385   -1.5839957327    4.1582819246
Cl       1.5836435620   -6.9523010040    5.0810098896
Cl      -0.1823323583   -6.5707152288    2.4159697613
H        2.0819216042   -4.6653033812    0.3431905372
H        3.5094488970   -3.9770318012    2.2533219768
H        0.0078607931   -3.3972749329   -0.1687744657
H        2.8801137992   -2.0294830041    3.6382480787
H       -0.6327571076   -1.4547466507    1.2091147432
H       -0.1184862942   -2.5675656154    6.3951004920
H        1.1951868051   -4.6435063094    6.7094416566
H       -1.4736090025   -4.0451013826    2.5900855411
H        1.4864520097    0.2075493245    3.7171093398
H       -0.6025061263    0.4972156759    4.7426314518
29   

C        1.9837826584   -3.2269571536    0.8201716746
C        2.3234185706   -4.0021945435    1.9326589319
C        1.6957878075   -1.8689426253    0.9819179910
C        2.3931614368   -3.4154900668    3.2016116832
C        1.7594441143   -1.2860891874    2.2523035080
C       -0.8289534809   -3.8782084924    4.9307462456
C       -0.9522810271   -5.1537601062    4.3730175284
C       -1.0802364412   -2.9185460191    2.7335608448
C        2.1472752585   -2.0436623913    3.3688127183
C       -0.8713800546   -2.7466667859    4.1097315276
C       -1.1329709708   -5.3249212382    2.9947599451
C       -1.2078081865   -4.1916459935    2.1656924584
C        2.1380856025   -1.4559277123    4.7318931350
C        1.0608777457   -1.0821932333    5.4302754968
O       -0.7931426531   -0.0471175546    3.7546309914
O       -1.5500926685   -0.8601317011    5.9345854848
S       -0.6366695427   -1.0722722778    4.8008717748
Cl      -1.2585846027   -6.9402988772    2.3330784370
Cl      -1.4418115316   -4.3449502249    0.4373832414
H        1.9297282951   -3.6806206820   -0.1633089272
H        2.5247558920   -5.0606361106    1.8122526208
H        1.4155157029   -1.2664876812    0.1250113422
H        2.6387602050   -4.0318945813    4.0588944849
H        1.5148597372   -0.2348021343    2.3702073660
H       -0.6894526510   -3.7673602052    6.0025135987
H       -0.9053625491   -6.0277210215    5.0118308650
H       -1.1276868987   -2.0490250074    2.0839907164
H        3.0265630314   -1.6250311496    5.3315549368
H        1.1542454417   -0.7844578700    6.4634117719
29   

C        2.0214612576   -3.2902202602    0.8681980581
C        2.2417267363   -4.0185991286    2.0411859620
C        1.8331575575   -1.9064007778    0.9339051443
C        2.2877670053   -3.3612636486    3.2760795398
C        1.8797696197   -1.2511386911    2.1694444363
C       -0.7874927357   -3.9590549595    4.9264806514
C       -0.8993411370   -5.2167935393    4.3267535677
C       -1.0513823651   -2.9305359167    2.7613859841
C        2.1401816937   -1.9678322427    3.3463124774
C       -0.8434979320   -2.8021237503    4.1426650183
C       -1.0837715342   -5.3441463435    2.9439622329
C       -1.1710402513   -4.1851155834    2.1525804021
C        2.1264060470   -1.2895134311    4.6700026622
C        1.0602188145   -1.0368348903    5.4342764506
O       -0.9351944373   -0.0987250968    3.8866452235
O       -1.5302313712   -1.0246372296    6.0682609484
S       -0.6617306827   -1.1450263684    4.8865629021
Cl      -1.1996004817   -6.9376510842    2.2297850293
Cl      -1.4129350757   -4.2832436974    0.4212876753
H        1.9820154509   -3.7993054956   -0.0885012322
H        2.3663177396   -5.0945181400    1.9940653146
H        1.6444409458   -1.3404001918    0.0284901843
H        2.4408803068   -3.9373804835    4.1815592826
H        1.7122201899   -0.1796936685    2.2162795374
H       -0.6523015253   -3.8812404427    6.0018105604
H       -0.8442182601   -6.1109436076    4.9363007652
H       -1.1100223614   -2.0404080186    2.1410506510
H        3.0838532784   -1.2390227944    5.1783801652
H        1.1833008860   -0.6853458508    6.4472146635
29   

C        2.8909660274   -4.2448161070    1.9721194405
C        3.1868612030   -4.0828939040    3.3283572843
C        2.1852454047   -3.2477316649    1.2934739091
C        2.7582741725   -2.9364868623    4.0068926939
C        1.7648453178   -2.0999546487    1.9747144474
C       -0.3635014598   -4.1873660831    4.0195483821
C       -0.7443958640   -4.8785856441    2.8688252001
C       -1.7109706260   -2.3134405781    3.3226476556
C        2.0025143710   -1.9545791265    3.3505991127
C       -0.8305736088   -2.8886939808    4.2495131210
C       -1.5976239485   -4.2933586842    1.9269717105
C       -2.0917811987   -2.9961367509    2.1593285953
C        1.6164645780   -0.7049149725    4.0536402430
C        0.6689720958   -0.5680780713    4.9868592657
O       -1.4040410801   -1.4044136863    6.4497013904
O        0.6254931760   -2.7732381320    6.5465155981
S       -0.2570692865   -1.9465210794    5.7048971748
Cl      -2.0242840381   -5.1823443255    0.4810515509
Cl      -3.1595008021   -2.2159203870    1.0125927915
H        3.2172191947   -5.1349480836    1.4457844161
H        3.7511205793   -4.8430251929    3.8570860062
H        1.9638516268   -3.3620022643    0.2382278734
H        2.9995598875   -2.8163642145    5.0587576526
H        1.2254982059   -1.3299973832    1.4342659940
H        0.3155398930   -4.6532753422    4.7291950433
H       -0.3641693412   -5.8780842396    2.6953759625
H       -2.0958160770   -1.3125024683    3.4932194151
H        1.8970301070    0.2221712813    3.5642568435
H        0.3770936382    0.4083625029    5.3420129265
29   

C        2.9595647550   -4.2335817814    1.9994401639
C        3.1114847053   -4.0899931723    3.3808514375
C        2.3596766444   -3.2116123253    1.2593245189
C        2.6400282118   -2.9390194823    4.0219433503
C        1.8979372739   -2.0580404872    1.9030810448
C       -0.3767052203   -4.2131172121    4.0560858815
C       -0.7795646999   -4.8946798844    2.9067437590
C       -1.7112256745   -2.3215703781    3.3832193192
C        1.9831324431   -1.9310626064    3.2986739001
C       -0.8246058253   -2.9096427967    4.2961366000
C       -1.6382990553   -4.2959319799    1.9782177735
C       -2.1155119912   -2.9948360944    2.2227643520
C        1.5350846803   -0.6883072074    3.9660982485
C        0.6707270690   -0.5830064508    4.9832800024
O       -1.3451359408   -1.4351903863    6.5144365950
O        0.6933134746   -2.7904435200    6.5577678118
S       -0.2153992561   -1.9697105569    5.7386722905
Cl      -2.0932077921   -5.1731572588    0.5336720708
Cl      -3.1899061230   -2.1974677594    1.0940757755
H        3.3175888643   -5.1281041985    1.5019971398
H        3.5990748453   -4.8671272449    3.9588512257
H        2.2520710324   -3.3115943089    0.1850814281
H        2.7854717939   -2.8341563442    5.0924193220
H        1.4401448656   -1.2711036419    1.3140792036
H        0.3053636357   -4.6899353735    4.7553814544
H       -0.4127953398   -5.8974231133    2.7233130759
H       -2.0814949184   -1.3165294105    3.5616566636
H        1.7166064946    0.2375852683    3.4299401717
H        0.3679825804    0.3874414951    5.3458717349
29   

C        3.0413295933   -4.1759547672    1.9802731683
C        3.0152456032   -4.0904193675    3.3739400348
C        2.5836924589   -3.1022523850    1.2133346034
C        2.5064765156   -2.9457302140    3.9975422686
C        2.0836474281   -1.9553666358    1.8400806351
C       -0.4402466010   -4.2120081504    4.1656088296
C       -0.8651069476   -4.9355682703    3.0500398771
C       -1.7303161187   -2.3212077570    3.4095497366
C        1.9906428089   -1.8803797955    3.2396474813
C       -0.8545071780   -2.8879634801    4.3460259800
C       -1.7145843908   -4.3596870966    2.0984961048
C       -2.1580336107   -3.0372367537    2.2840417977
C        1.4740279099   -0.6565091255    3.8779540664
C        0.6641752122   -0.5463310133    4.9421104181
O       -1.3587363324   -1.3225191038    6.4998645660
O        0.6585383876   -2.6964424263    6.6086582703
S       -0.2327312445   -1.8987489925    5.7491578463
Cl      -2.2026616837   -5.2926788077    0.7004280200
Cl      -3.2220018412   -2.2674733565    1.1266088030
H        3.4286966801   -5.0653944322    1.4958562664
H        3.3977104321   -4.9070237888    3.9760826980
H        2.6151537180   -3.1575380516    0.1309603281
H        2.5379284452   -2.8890924182    5.0791388550
H        1.7343501608   -1.1314477500    1.2277657532
H        0.2291819766   -4.6745322458    4.8863559351
H       -0.5258362702   -5.9551568529    2.9119474729
H       -2.0767498148   -1.3008673296    3.5435064215
H        1.6210945030    0.2644314767    3.3229822639
H        0.3706437840    0.4313985011    5.2928566399
29   

C        3.1171882322   -4.0091247979    1.7512138005
C        2.8008149917   -4.1382143914    3.1042587040
C        2.9300386455   -2.7819561396    1.1138991141
C        2.2771234725   -3.0503917830    3.8117232414
C        2.4096721130   -1.6948373832    1.8245012549
C       -0.6564783343   -4.3280447889    4.4268806876
C       -1.0998851301   -5.1314316694    3.3747020634
C       -1.5813209160   -2.3967055205    3.3186808337
C        2.0358168978   -1.8186730847    3.1748676121
C       -0.8813327833   -2.9470595505    4.4017478997
C       -1.7774329991   -4.5784914526    2.2818246972
C       -2.0241816481   -3.1935302124    2.2552970032
C        1.4875024921   -0.6491378751    3.8708062028
C        0.6529315345   -0.5596063127    4.9213517992
O       -1.4012692627   -1.2744727653    6.4637255468
O        0.5998563327   -2.6431626755    6.6673884650
S       -0.2673567692   -1.8824581905    5.7516775240
Cl      -2.3029028536   -5.6187196757    0.9759897071
Cl      -2.8680255311   -2.4486948121    0.9146231638
H        3.5184568774   -4.8534770592    1.2017907384
H        2.9713626236   -5.0802786137    3.6129329098
H        3.1864926903   -2.6717486361    0.0661930602
H        2.0969893247   -3.1805991781    4.8689918796
H        2.2718831650   -0.7526392521    1.3057715840
H       -0.1293950372   -4.7772649281    5.2650264943
H       -0.9157126040   -6.1988692238    3.4000197881
H       -1.7807926624   -1.3300481433    3.2887951843
H        1.6988942101    0.3032520951    3.3952554053
H        0.3789953653    0.4192158191    5.2852793040
29   

C        3.3926197233   -3.9210126287    1.7266746784
C        2.8504243150   -4.1384598980    2.9932809189
C        3.3197967579   -2.6504748693    1.1566438001
C        2.2226000431   -3.0939809021    3.6813657899
C        2.6935223039   -1.6071206594    1.8467097290
C       -0.7680260881   -4.3603908235    4.4998333725
C       -1.2959766750   -5.1843508940    3.5036942683
C       -1.7078201910   -2.4406532974    3.3838996029
C        2.1088345871   -1.8098534557    3.1117901053
C       -0.9586945261   -2.9750471705    4.4421671395
C       -2.0261579688   -4.6482940418    2.4364073211
C       -2.2369165483   -3.2585146579    2.3774790782
C        1.4424836690   -0.6768155944    3.7569882841
C        0.6016603581   -0.5815683806    4.8046188615
O       -1.3438205527   -1.2596564313    6.4947232764
O        0.6659351785   -2.6256282257    6.6036279232
S       -0.2562628741   -1.8840899119    5.7269905924
Cl      -2.6628270612   -5.7152482030    1.2035431861
Cl      -3.1454984551   -2.5340229764    1.0681711565
H        3.8760332579   -4.7319027283    1.1931896268
H        2.9241053103   -5.1180288171    3.4518996406
H        3.7468281217   -2.4722109577    0.1760882338
H        1.8660012940   -3.3116352092    4.6741710338
H        2.6478206725   -0.6319725384    1.3746785915
H       -0.2067607502   -4.7980395395    5.3218833415
H       -1.1404900736   -6.2555286216    3.5543843247
H       -1.8833894751   -1.3706586181    3.3302881464
H        1.6366271225    0.2779917537    3.2790121830
H        0.2853099245    0.4020848734    5.1178283332
29   

C        2.8481936446   -2.1804627799    0.3941350924
C        1.4895391567   -2.1377198027    0.7037035640
C        3.7856259576   -1.8696520354    1.3775644527
C        1.0691152271   -1.7926639028    1.9932226473
C        3.3627621295   -1.5243175348    2.6656011110
C       -0.7555618391   -4.1280158355    5.3522352886
C       -0.7082328279   -5.5034729321    5.1153001148
C       -1.5378317262   -3.7849735852    3.0977880824
C        1.9959776804   -1.4836688375    3.0097179211
C       -1.1547728852   -3.2509446655    4.3375362507
C       -1.0641308667   -6.0330926773    3.8694703816
C       -1.4880664040   -5.1624772200    2.8488307380
C        1.6517682300   -1.1550317751    4.3938911743
C        0.5039679391   -1.0449878674    5.0926639046
O       -1.6517950169   -0.7156210946    3.4463510718
O       -2.0566075011   -1.1766126792    5.8065471556
S       -1.2030414709   -1.4502976740    4.6404815825
Cl      -0.9807793278   -7.7622963536    3.6109750078
Cl      -1.9538669555   -5.7700168044    1.2747156397
H        3.1722598645   -2.4497149651   -0.6050377686
H        0.7540933431   -2.3685286943   -0.0588910548
H        4.8439835703   -1.8980640055    1.1438305963
H        0.0084255163   -1.7596239647    2.1580962931
H        4.1199395103   -1.2944275264    3.4068945566
H       -0.4815888923   -3.7411372836    6.3300113574
H       -0.3929302376   -6.1750305475    5.9053313773
H       -1.8844749112   -3.1253984272    2.3070952332
H        2.5185274978   -0.9105087888    4.9992336331
H        0.5679745776   -0.7062753927    6.1157239048
29   

C        2.5865050720   -2.6310537076    0.6391860755
C        1.2616407321   -2.2725227239    0.8870269631
C        3.5527345028   -2.4140577589    1.6211631385
C        0.9003021654   -1.7157603927    2.1189710360
C        3.1892623613   -1.8571482312    2.8521346940
C       -0.4536337892   -4.0528619318    5.3636664827
C       -0.2360126311   -5.3996022745    5.0644755139
C       -1.3939375003   -3.7369943274    3.1664010089
C        1.8521548331   -1.5215584822    3.1399369982
C       -1.0193802895   -3.2021355323    4.4081016657
C       -0.5832942360   -5.9260669963    3.8145945181
C       -1.1736751697   -5.0841440050    2.8545995859
C        1.5406387527   -0.9859316772    4.4666903558
C        0.3870297600   -0.8071182444    5.1389706228
O       -1.8872708681   -0.7296756227    3.6379139797
O       -2.0848269663   -1.2960560480    5.9987782877
S       -1.2758005839   -1.4325439955    4.7780870081
Cl      -0.2804031999   -7.6162239625    3.4752033812
Cl      -1.6326896591   -5.6884140897    1.2772658732
H        2.8643752180   -3.0660160561   -0.3144929054
H        0.5099103855   -2.4163989343    0.1189289418
H        4.5861218778   -2.6814584769    1.4309979001
H       -0.1255149518   -1.4091841781    2.2331937653
H        3.9616846216   -1.7082635456    3.5983838606
H       -0.1791321479   -3.6668571674    6.3415613172
H        0.2092515610   -6.0506108524    5.8075894040
H       -1.8607830813   -3.0989389107    2.4212296562
H        2.4157349869   -0.6955373574    5.0390056291
H        0.4276695621   -0.3196733989    6.1014054501
29   

C        2.4003164441   -2.8012842882    0.7239384265
C        1.1535079308   -2.2009768844    0.9028795508
C        3.3482750616   -2.7387474503    1.7461155661
C        0.8467038009   -1.5625741660    2.1097194451
C        3.0395965867   -2.0975007892    2.9509453368
C       -0.3691346101   -4.0196925468    5.3532125231
C       -0.0643932411   -5.3446319759    5.0325732937
C       -1.2286605701   -3.6997942688    3.1239702151
C        1.7694638624   -1.5350269365    3.1722012215
C       -0.9375981219   -3.1770934333    4.3925065095
C       -0.3257322247   -5.8564302008    3.7557008524
C       -0.9200245611   -5.0237467575    2.7903167030
C        1.4908088535   -0.8916382573    4.4613580667
C        0.3362431087   -0.7085524134    5.1266550653
O       -1.9503543123   -0.7539945686    3.6501923483
O       -2.0951454496   -1.3451636585    6.0103067354
S       -1.2916417822   -1.4288846877    4.7810383404
Cl       0.0892438288   -7.5167288402    3.3889453133
Cl      -1.2714009069   -5.6089201951    1.1784797284
H        2.6351510341   -3.3016112579   -0.2090374954
H        0.4235089990   -2.2200807800    0.1013048646
H        4.3238501351   -3.1908063399    1.6068138449
H       -0.1077332894   -1.0622318718    2.1839740527
H        3.7919405161   -2.0661879943    3.7310951780
H       -0.1581908452   -3.6429775515    6.3503239502
H        0.3840020982   -5.9892762293    5.7792250833
H       -1.6926120799   -3.0669202273    2.3727581733
H        2.3726478322   -0.6031583111    5.0242575758
H        0.3562584208   -0.1756734508    6.0652636398
29   

C        2.1849786899   -2.8800857538    0.7722905421
C        1.0984331739   -2.0107426581    0.8868055399
C        3.0476209620   -3.0546854490    1.8565277104
C        0.8578452998   -1.3431125841    2.0927729486
C        2.8091326771   -2.3790696941    3.0586969838
C       -0.3447395113   -3.9813695717    5.3460175909
C        0.0447115984   -5.2844328068    5.0262422718
C       -1.0565452206   -3.6577501884    3.0659661392
C        1.6814244415   -1.5556637811    3.2119421285
C       -0.8801748009   -3.1465579855    4.3598366175
C       -0.0992128977   -5.7819250847    3.7251515478
C       -0.6636639550   -4.9593943952    2.7337733700
C        1.4503236379   -0.8541780291    4.4870516315
C        0.2923686732   -0.6566461929    5.1360410143
O       -1.9323254608   -0.7536320706    3.5766450798
O       -2.1567605129   -1.3495218949    5.9355850449
S       -1.3068473394   -1.4112396840    4.7363931608
Cl       0.4264399355   -7.4108410294    3.3596976524
Cl      -0.8684897149   -5.5270339990    1.0906273256
H        2.3645968381   -3.4071259700   -0.1582350806
H        0.4418614749   -1.8480789883    0.0392926929
H        3.9011297101   -3.7171626356    1.7667535260
H        0.0309204525   -0.6445044413    2.1406788076
H        3.4899029681   -2.5278720438    3.8892776949
H       -0.2192717298   -3.6129704537    6.3604916518
H        0.4710502894   -5.9218358971    5.7917555287
H       -1.4877343831   -3.0288595381    2.2922948225
H        2.3385832254   -0.6189881741    5.0643883140
H        0.2893630121   -0.1211128823    6.0731779859
29   

C        2.1044121523   -2.8982391600    0.7986569623
C        1.1433120093   -1.8859613500    0.8523523230
C        2.8611664304   -3.1952047898    1.9348172134
C        0.9200584754   -1.1942870457    2.0480045003
C        2.6414521758   -2.4948240163    3.1263768771
C       -0.3339560652   -3.9663672398    5.3506563854
C        0.0840226886   -5.2642824416    5.0451266257
C       -0.9517467975   -3.6461037629    3.0426116472
C        1.6295380704   -1.5256280174    3.2132946678
C       -0.8378542438   -3.1361593210    4.3441089742
C       -0.0014716744   -5.7615104789    3.7386852790
C       -0.5337102250   -4.9437843115    2.7258824150
C        1.4232965841   -0.7666093958    4.4665115469
C        0.2768085410   -0.6301812098    5.1448541026
O       -1.8836242939   -0.7588743599    3.5126396405
O       -2.1908725782   -1.3463628184    5.8687307486
S       -1.2988554381   -1.4048001001    4.7002078227
Cl       0.5567699500   -7.3839061854    3.3929591968
Cl      -0.6677563314   -5.5127292076    1.0758290619
H        2.2687772841   -3.4442407427   -0.1237236828
H        0.5691323548   -1.6340525431   -0.0323375653
H        3.6175436884   -3.9707799169    1.8929868002
H        0.1829573651   -0.3978427884    2.0663107922
H        3.2396830881   -2.7339045004    3.9983285623
H       -0.2542456593   -3.5981146191    6.3697806557
H        0.4865562863   -5.8981447686    5.8263294812
H       -1.3532075219   -3.0187937675    2.2517996649
H        2.3157656191   -0.5132025105    5.0294190677
H        0.2608148356   -0.1077609075    6.0891066103
29   

C        2.0741227635   -2.9325135271    0.8456885905
C        1.2065894556   -1.8373954161    0.8258433119
C        2.7240681487   -3.2798251246    2.0327961118
C        0.9729124730   -1.1076883991    1.9966991920
C        2.4922996402   -2.5430027669    3.1997819420
C       -0.2968308376   -3.9978114874    5.3809504991
C        0.1290700982   -5.2894124615    5.0589292750
C       -0.9067377631   -3.6492592011    3.0744962360
C        1.5741603006   -1.4811642216    3.2071219398
C       -0.8022628637   -3.1572767794    4.3838933258
C        0.0485927801   -5.7700970972    3.7458265562
C       -0.4841315443   -4.9415147188    2.7422626122
C        1.3733435136   -0.6667190348    4.4319323276
C        0.2687478577   -0.6225120063    5.1838498702
O       -1.8976660149   -0.7973728529    3.5803227838
O       -2.1706719590   -1.4030766390    5.9379942545
S       -1.2901384560   -1.4376379088    4.7597062709
Cl       0.6132165071   -7.3859130366    3.3803454877
Cl      -0.6148344471   -5.4909974954    1.0852629586
H        2.2471717564   -3.5063686255   -0.0580168874
H        0.7122939496   -1.5521585318   -0.0961534741
H        3.4065473860   -4.1220388399    2.0493928844
H        0.3007557981   -0.2553608405    1.9690383721
H        3.0079967332   -2.8188832884    4.1126162133
H       -0.2244262106   -3.6434476527    6.4055431388
H        0.5318636284   -5.9321672792    5.8327047258
H       -1.3068118813   -3.0123069472    2.2905529308
H        2.2730932758   -0.3288586904    4.9358170259
H        0.2639114731   -0.1027156708    6.1295933110
29   

C        2.0565817456   -3.0694418123    0.8914915709
C        1.2902105267   -1.9085135678    0.7563974269
C        2.5775522450   -3.4149698124    2.1412586425
C        1.0360326527   -1.1028048521    1.8720927091
C        2.3217428364   -2.6061572954    3.2541848249
C       -0.2038968976   -4.0713771014    5.3645650533
C        0.2137157283   -5.3490035134    4.9810281949
C       -0.9265449483   -3.6552321032    3.1016871545
C        1.5203713477   -1.4595771127    3.1377556883
C       -0.7621521171   -3.2044430084    4.4199049026
C        0.0709911144   -5.7892681984    3.6588137692
C       -0.5151554373   -4.9339082413    2.7089683439
C        1.2976309745   -0.5725293548    4.3104135501
C        0.2614730286   -0.5972849427    5.1532333188
O       -2.0342361706   -0.8912092475    3.7774372460
O       -2.0351131745   -1.5354931020    6.1356440164
S       -1.2751340220   -1.5128805313    4.8757414042
Cl       0.6244744458   -7.3891961729    3.2154041506
Cl      -0.7277114880   -5.4338353110    1.0446613044
H        2.2479937040   -3.6988085211    0.0293829368
H        0.8913566200   -1.6314758187   -0.2130775715
H        3.1769088536   -4.3119811861    2.2486276676
H        0.4418187017   -0.2016863973    1.7581544147
H        2.7342871256   -2.8813774425    4.2182357169
H       -0.0897794687   -3.7501877756    6.3963853395
H        0.6553467921   -6.0136951328    5.7139769055
H       -1.3699646469   -2.9973165265    2.3592872024
H        2.1702751919   -0.0296110129    4.6589595105
H        0.2741580661   -0.0087062104    6.0577282717
29   

C        2.9694245837   -3.5864001439    2.1841439065
C        1.9151504084   -3.0970601021    1.4072287519
C        3.2364774391   -3.0142260905    3.4313962373
C        1.1432099450   -2.0243885056    1.8682491589
C        2.4584404441   -1.9468959678    3.8936201375
C        0.1797650644   -4.3010693163    4.4432337381
C        0.0889096423   -5.3170339966    3.4909878045
C       -1.7996771983   -3.2795255554    3.5216132364
C        1.4311536507   -1.4136391991    3.0994111207
C       -0.7550817108   -3.2604797159    4.4562651443
C       -0.9332900697   -5.3186898206    2.5357718461
C       -1.8937476472   -4.2901106313    2.5550293321
C        0.5522199119   -0.3315478905    3.6110391879
C       -0.3455938780   -0.4263983433    4.5971876953
O       -1.8339061035   -1.7112881053    6.4037824156
O        0.5810257567   -2.0889772511    6.5189980684
S       -0.5862713688   -1.8836605011    5.6437334045
Cl      -0.9897788396   -6.5919480836    1.3364326797
Cl      -3.1928561508   -4.2434354862    1.3830136607
H        3.5722421629   -4.4127489401    1.8242920958
H        1.6911935039   -3.5519899935    0.4488583694
H        4.0440668006   -3.3973785555    4.0451746696
H        0.3168405746   -1.6667332683    1.2641632450
H        2.6617238455   -1.5210108436    4.8715169122
H        0.9929387227   -4.3084999900    5.1646136435
H        0.8285178268   -6.1085564674    3.4818812480
H       -2.5449948491   -2.4899947557    3.5290174947
H        0.3954065801    0.5092491078    2.9430932688
H       -1.0235422805    0.3879078828    4.8024812370
29   

C        3.0173395666   -3.5700996636    2.1535591187
C        2.0302470421   -3.0441918805    1.3155491508
C        3.1769147161   -3.0576482567    3.4437511661
C        1.2137728298   -1.9989771614    1.7625588275
C        2.3526212688   -2.0200077110    3.8928462652
C        0.1711812326   -4.3214733314    4.5014932309
C        0.0733299901   -5.3362772182    3.5484429571
C       -1.8007032296   -3.2862613929    3.5795802782
C        1.3783338008   -1.4600618123    3.0493728685
C       -0.7543293502   -3.2725199331    4.5123919297
C       -0.9496508365   -5.3312270693    2.5939061086
C       -1.9038446344   -4.2971138728    2.6146861155
C        0.4625115355   -0.3997601923    3.5265953024
C       -0.3440239897   -0.4472087316    4.5943177991
O       -1.8043349410   -1.6927664735    6.4513340612
O        0.6101068108   -2.0734360781    6.5460270007
S       -0.5659920476   -1.8806567773    5.6800318480
Cl      -1.0152524950   -6.6032448428    1.3936649190
Cl      -3.2048524884   -4.2421823537    1.4450413157
H        3.6555429103   -4.3742820179    1.8046496239
H        1.8949611545   -3.4477928964    0.3183716653
H        3.9398668723   -3.4613165862    4.1000345894
H        0.4438192718   -1.6109567594    1.1050475124
H        2.4911189505   -1.6318971113    4.8968988671
H        0.9849209551   -4.3342951906    5.2220633029
H        0.8079935682   -6.1323675002    3.5375302286
H       -2.5389859639   -2.4901493081    3.5851764757
H        0.2255756937    0.3852014805    2.8156844244
H       -1.0160306598    0.3708400836    4.8044886939
29   

C        3.1090720425   -3.4798445548    2.0534397029
C        2.2194315392   -2.8501841937    1.1796742118
C        3.1347579601   -3.1108182908    3.4002322741
C        1.3589735640   -1.8526162543    1.6520216687
C        2.2675395577   -2.1199658367    3.8732805550
C        0.1179546649   -4.3486408820    4.5699285135
C        0.0044090615   -5.3821962540    3.6387302862
C       -1.8282465404   -3.2955600275    3.6143187309
C        1.3698433411   -1.4732091673    3.0057975980
C       -0.7865045313   -3.2813771454    4.5522495070
C       -1.0154455599   -5.3795036234    2.6805412046
C       -1.9486523677   -4.3263858482    2.6732702533
C        0.4228466449   -0.4465999240    3.4780043970
C       -0.3341251942   -0.4599271462    4.5854622072
O       -1.8325632807   -1.6497159696    6.4462996556
O        0.5699724544   -2.0675836371    6.5851542230
S       -0.5873155080   -1.8710483509    5.6954222991
Cl      -1.1053683025   -6.6799596150    1.5126829365
Cl      -3.2465424628   -4.2742182439    1.4999252156
H        3.7809550488   -4.2477685098    1.6864744065
H        2.1955226805   -3.1349928857    0.1337898128
H        3.8324619952   -3.5853422708    4.0812180903
H        0.6702173101   -1.3807993249    0.9601036760
H        2.3294807279   -1.8309349569    4.9159329346
H        0.9257001249   -4.3636504481    5.2971569635
H        0.7219358901   -6.1938326235    3.6493795883
H       -2.5514045477   -2.4857762063    3.5990419484
H        0.1669016113    0.3278558965    2.7621293013
H       -0.9889737059    0.3719722930    4.7958544504
29   

C        3.1554826819   -3.2644624800    1.7978237319
C        2.4265619665   -2.4138931743    0.9646735519
C        2.9917699111   -3.1833836918    3.1817318406
C        1.5313385569   -1.4898784386    1.5150425883
C        2.0939233341   -2.2619425113    3.7315730909
C       -0.0120067566   -4.4305031045    4.8595143712
C       -0.1112281028   -5.5469455708    4.0271533841
C       -1.7390758451   -3.3422693563    3.5765760312
C        1.3408195966   -1.4058988107    2.9079785998
C       -0.8165658943   -3.3083183140    4.6318430202
C       -1.0145894641   -5.5709095699    2.9583048483
C       -1.8420567120   -4.4555060101    2.7327227172
C        0.3671113208   -0.4334560458    3.4188229611
C       -0.4028945394   -0.4581983779    4.5205270722
O       -1.9231251363   -1.5843677577    6.3992431426
O        0.4727538860   -1.9556808321    6.6150463977
S       -0.6608549783   -1.8243479743    5.6839583987
Cl      -1.0962347439   -6.9840832880    1.9288822432
Cl      -2.9916254974   -4.4319819722    1.4127992877
H        3.8520352917   -3.9785824788    1.3727758275
H        2.5544503618   -2.4703006781   -0.1105138181
H        3.5703043852   -3.8270846988    3.8346657836
H        0.9726622530   -0.8440175241    0.8468059452
H        2.0334339267   -2.1984469588    4.8087231847
H        0.6988842363   -4.4312569316    5.6820898222
H        0.5216766477   -6.4079119116    4.2063899104
H       -2.3849320039   -2.4888066753    3.3949604084
H        0.1413737237    0.3849631459    2.7427034070
H       -1.0564805020    0.3780224685    4.7182258917
29   

C        3.4207985165   -3.0485702772    1.7105620982
C        2.7737912627   -2.0987341681    0.9194992717
C        3.0761170145   -3.1749849772    3.0566964188
C        1.7791146221   -1.2848498101    1.4726140760
C        2.0800370977   -2.3624670245    3.6095202834
C       -0.0835226599   -4.4911752046    4.9317500269
C       -0.2680189469   -5.6466932684    4.1697167465
C       -1.8628058166   -3.4212161659    3.7059393980
C        1.4007154955   -1.4117926201    2.8253416686
C       -0.8721081632   -3.3590315317    4.6964118993
C       -1.2427206129   -5.7009146207    3.1664249205
C       -2.0529251510   -4.5744317347    2.9341116073
C        0.3485800079   -0.5186111927    3.3172241204
C       -0.4185660792   -0.5318434065    4.4236353826
O       -1.8465029127   -1.5352346097    6.4363980746
O        0.5506179103   -1.9424361491    6.5432915117
S       -0.6285007116   -1.8322480198    5.6678973080
Cl      -1.4352219553   -7.1657144276    2.2277946493
Cl      -3.2913256465   -4.5879918933    1.6968227230
H        4.1944614385   -3.6778466293    1.2847525323
H        3.0437214698   -1.9909399312   -0.1250569692
H        3.5915934149   -3.8954663326    3.6816648866
H        1.2936068486   -0.5563836600    0.8327454186
H        1.8931902211   -2.4679361599    4.6653011699
H        0.6765155453   -4.4727533657    5.7090028665
H        0.3506576573   -6.5167722538    4.3550342529
H       -2.4989870875   -2.5608617826    3.5219952594
H        0.1094289143    0.2978134182    2.6433671738
H       -1.1026408175    0.2881631225    4.5827235367
29   

C        2.4838753926   -3.0819797651    0.2074373454
C        3.2910234259   -2.1593782356    0.8732341800
C        1.1590366378   -3.2547688457    0.6090888382
C        2.7752897848   -1.4186723338    1.9424313075
C        0.6425080116   -2.5143713743    1.6782836032
C       -0.4279930645   -3.5192235936    5.7876033876
C        0.0060016174   -4.8052595881    6.1169764179
C       -1.3790411482   -4.3834366638    3.7476879751
C        1.4434006004   -1.5927882359    2.3768946470
C       -1.1113375026   -3.2918057978    4.5877859106
C       -0.2380015455   -5.8890676461    5.2652906762
C       -0.9431636772   -5.6755750696    4.0668454029
C        1.0039482807   -0.7582949509    3.4965637351
C       -0.1472019334   -0.6230432418    4.1848405518
O       -2.2973731966   -1.5909657745    2.8111021930
O       -2.5688666867   -1.0994290244    5.1836359236
S       -1.6658970676   -1.6095010880    4.1408505274
Cl       0.3325648308   -7.4827729258    5.7107833365
Cl      -1.2838645991   -6.9948490803    2.9680287715
H        2.8802836291   -3.6558038317   -0.6229036069
H        4.3187147625   -2.0152474491    0.5592374039
H        0.5223982592   -3.9585472791    0.0845396599
H        3.4288892529   -0.7077526402    2.4354618282
H       -0.3939222010   -2.6694625978    1.9157479484
H       -0.2318749961   -2.6951361419    6.4680310723
H        0.5397850139   -4.9718950654    7.0453138070
H       -1.9359790378   -4.2339067082    2.8266868765
H        1.7632970791   -0.0618809399    3.8370687303
H       -0.2009556998    0.1508954716    4.9356080047
