14   

C       -1.7011906960   -0.2959297748    0.1205198604
C        0.4076507823   -0.7134711401    0.1434816868
C        1.7730573129   -1.3318565289    0.0555675803
C        0.2773311457    0.8242679608    0.1942988081
N        1.3613758286    2.0365409861   -1.9197185668
N       -1.1913227855    0.9108314691    0.1723616132
N       -0.7573022562   -1.3064993690    0.0911885326
N        0.8682053561    1.4878202201   -0.9739555122
N        1.8227321580   -2.6275193672   -0.2958711529
O        2.7942452513   -0.6755389980    0.1547581147
H       -2.7725679984   -0.4822412003    0.0993093118
H        0.7080041267    1.2170656572    1.1249219446
H        2.7417109707   -3.0533835416   -0.3786887787
H        0.9749152852   -3.1821535297   -0.3713890361
14   

C       -1.7273879190   -0.3290658458    0.1096064671
C        0.3844786400   -0.7221975334    0.2211090475
C        1.7549254493   -1.3379939925    0.1760723541
C        0.2360204193    0.8170008366    0.1814011877
N        1.3688794856    1.9233674425   -1.9647665734
N       -1.2320605315    0.8847993254    0.1134080321
N       -0.7725797227   -1.3288754303    0.1532998919
N        0.8551157868    1.4210102903   -1.0042656746
N        1.8391590504   -2.5547442420   -0.3971478306
O        2.7631820370   -0.6933518147    0.4006191501
H       -2.7958368608   -0.5288625553    0.0707384955
H        0.6353778478    1.2651072312    1.1010746382
H        2.7656384650   -2.9654083128   -0.4741408569
H        1.0039933225   -3.1060422667   -0.5720889219
14   

C       -1.7313601442   -0.3398431593    0.0281199101
C        0.3690076636   -0.7524051844    0.2530198917
C        1.7269031564   -1.4014634872    0.2965033448
C        0.2382949966    0.7905043621    0.1545090687
N        1.4562094925    1.8098706543   -1.9879994853
N       -1.2248273864    0.8693739316    0.0240042310
N       -0.7897424903   -1.3473223387    0.1351088559
N        0.9068542758    1.3452487111   -1.0281135702
N        1.8911293754   -2.4848975083   -0.4952976491
O        2.7050856831   -0.8111668963    0.7159505124
H       -2.7993852828   -0.5307752056   -0.0483952237
H        0.6068764757    1.2664717527    1.0732296343
H        2.8230532196   -2.8900864484   -0.5202924248
H        1.0864239373   -3.0090147319   -0.8261531769
14   

C       -1.7346151586   -0.2961787852   -0.0345874124
C        0.3474558878   -0.7520451430    0.2677182009
C        1.6803901280   -1.4461387210    0.3928176440
C        0.2566422194    0.7940776668    0.1112689789
N        1.5279581480    1.7105689688   -2.0465496190
N       -1.2007095797    0.9011422850   -0.0569720823
N       -0.8201744807   -1.3216454309    0.1231828900
N        0.9571824899    1.2908141381   -1.0784356183
N        1.9729381869   -2.3616467768   -0.5622428206
O        2.5966578508   -0.9442988210    1.0160062468
H       -2.8046878437   -0.4650560253   -0.1313594628
H        0.6169647229    1.2942736892    1.0205463730
H        2.9052093311   -2.7647662684   -0.5154190265
H        1.2279044524   -2.8434239344   -1.0562234679
14   

C       -1.7534612653   -0.2775824760   -0.0181682988
C        0.3180538823   -0.7738718897    0.2958949870
C        1.6277624011   -1.5074585558    0.4643432764
C        0.2640426328    0.7698119380    0.0774664115
N        1.5299542161    1.5785121369   -2.1261804816
N       -1.1911247100    0.9049262190   -0.0884208666
N       -0.8635307866   -1.3180768751    0.1743147770
N        0.9633830930    1.2058913959   -1.1364405551
N        2.0526648457   -2.2348355626   -0.6018773895
O        2.4640848024   -1.1257599551    1.2600516533
H       -2.8278157910   -0.4242736449   -0.1028110998
H        0.6402161068    1.2970168954    0.9649377432
H        2.9793051984   -2.6416421106   -0.4997196722
H        1.3782060420   -2.6581732628   -1.2315809825
14   

C       -1.7680032102   -0.2460642070    0.0784347701
C        0.2996597480   -0.7920059971    0.3356095833
C        1.5871909244   -1.5656348305    0.5192980856
C        0.2807000240    0.7442573086    0.0490003350
N        1.4763573106    1.4389576027   -2.2315910536
N       -1.1751226841    0.9140330455   -0.0720609184
N       -0.9019331263   -1.3019448982    0.2908987920
N        0.9425176299    1.1158803715   -1.2067339507
N        2.1277107170   -2.0930091785   -0.6171458446
O        2.3326412002   -1.3501150938    1.4545880330
H       -2.8484766588   -0.3646052362    0.0401636439
H        0.6993795147    1.2988093800    0.9000627211
H        3.0428237165   -2.5170054835   -0.4815924382
H        1.5209702190   -2.4350961009   -1.3552414783
14   

C       -1.7830052979   -0.1865549598    0.2354845238
C        0.2774416643   -0.8051179342    0.3704896714
C        1.5384658250   -1.6240434986    0.5644918811
C        0.2934019919    0.7187467279    0.0131790579
N        1.3402334972    1.3014628528   -2.3699756669
N       -1.1600923557    0.9389915999   -0.0203972306
N       -0.9433418716   -1.2615065607    0.4521808612
N        0.8745248081    1.0259016431   -1.2988547499
N        2.1992214636   -1.9494307370   -0.5922723189
O        2.1516255149   -1.6505221982    1.6129169391
H       -2.8671063701   -0.2648747118    0.2750036935
H        0.7827977217    1.2946889784    0.8105421914
H        3.0900491094   -2.4141998723   -0.4275342092
H        1.6722438727   -2.1727321025   -1.4295686772
14   

C       -1.7822567995   -0.0887012458    0.4085886184
C        0.2545751482   -0.8047040013    0.3858589030
C        1.4831073331   -1.6721015969    0.5933588622
C        0.3027634664    0.7012822517   -0.0464225339
N        1.1194920902    1.1642434325   -2.5437505419
N       -1.1360679850    0.9906541932    0.0378611329
N       -0.9729461930   -1.1864175240    0.6172628571
N        0.7596621325    0.9387106542   -1.4210024330
N        2.2774708666   -1.8110286572   -0.5236492329
O        1.8931491442   -2.0366357966    1.6770969855
H       -2.8611106154   -0.1146634880    0.5441860816
H        0.8848523412    1.2910972152    0.6746686651
H        3.1183680134   -2.3561780413   -0.3406666670
H        1.8619056913   -1.8461952861   -1.4466207829
14   

C       -1.7614661694   -0.0206300412    0.5550506362
C        0.2390099571   -0.8274062185    0.3870258388
C        1.4329334211   -1.7487110592    0.5755436052
C        0.3093620072    0.6659019749   -0.0871899648
N        0.8673597949    1.0463513269   -2.6691918904
N       -1.1016740411    1.0233543575    0.1149662264
N       -0.9825161695   -1.1446840606    0.7263797586
N        0.6280835314    0.8558189665   -1.5079547491
N        2.3557810668   -1.7023535717   -0.4539749633
O        1.6538375333   -2.4247261585    1.5605322695
H       -2.8264422809    0.0005559146    0.7749577838
H        0.9802625788    1.2495697373    0.5574992752
H        3.1469084300   -2.3252490709   -0.2974852898
H        2.0863368690   -1.4777288564   -1.4020371012
14   

C       -1.7440552514    0.0401240514    0.6212210457
C        0.2232454515   -0.8375290676    0.3737468881
C        1.3764366113   -1.8157945417    0.5457294184
C        0.3118612943    0.6465596772   -0.1325364808
N        0.6858598117    0.9195370590   -2.7619200719
N       -1.0711951273    1.0579593566    0.1424709219
N       -0.9940603811   -1.1057834302    0.7691620022
N        0.5335463307    0.7803551844   -1.5784214973
N        2.4332023924   -1.6226293154   -0.3283450838
O        1.4315970737   -2.7110665682    1.3656632091
H       -2.7960401320    0.0978513490    0.8913614693
H        1.0418862646    1.2240898790    0.4502225069
H        3.1839375312   -2.3009842044   -0.2071581899
H        2.3880141278   -1.0650085018   -1.1684721067
14   

C       -1.7418869224   -0.3644458789   -0.1653226769
C        0.3485540042   -0.7484078713    0.2830202006
C        1.6090552851   -1.5423752629    0.5939521648
C        0.1247883611    0.8000940600    0.3898817965
N        1.3787932859    2.1746233304   -1.5254206191
N       -1.3121586844    0.8463084744    0.0918909604
N       -0.7705427191   -1.3347123681   -0.0574987206
N        0.8298239360    1.5509185229   -0.6575907827
N        2.7542834529   -0.7673156778    0.7026709921
O        1.6982902620   -2.7536592699    0.6408182161
H       -2.7740178158   -0.5862657698   -0.4270339406
H        0.3509178920    1.1762087248    1.3959886655
H        3.5973943866   -1.3152162615    0.8687509832
H        2.7787076117    0.2382323914    0.7907947522
14   

C       -1.7513687182   -0.3569983388   -0.1102409940
C        0.3455043941   -0.7562158356    0.2806253148
C        1.6294302241   -1.5332064724    0.5137434681
C        0.1503806891    0.7957634342    0.3433430871
N        1.4001033484    2.0680323591   -1.6437235353
N       -1.2941370558    0.8553194325    0.0863417840
N       -0.7916483304   -1.3387992687    0.0000810714
N        0.8496379292    1.4925644578   -0.7443458657
N        2.7221039350   -0.7306094263    0.8123324212
O        1.7838764413   -2.7280161116    0.3537932699
H       -2.7948394862   -0.5707230253   -0.3304527529
H        0.4074570715    1.2016357003    1.3296616103
H        3.5811581974   -1.2648749899    0.9366438743
H        2.6632764767    0.2087801848    1.1800340172
14   

C       -1.7647358296   -0.3478535759   -0.0313222774
C        0.3426580357   -0.7366986184    0.2981037189
C        1.6517761835   -1.4883338979    0.4544104601
C        0.1542394689    0.8166830181    0.3084826950
N        1.3690252433    1.9948672384   -1.7560862372
N       -1.2982381694    0.8702305797    0.0981530716
N       -0.8034826475   -1.3284210356    0.0824287318
N        0.8317405866    1.4628077722   -0.8229370111
N        2.6887786218   -0.7091008631    0.9405229988
O        1.8673757964   -2.6302845081    0.0992033529
H       -2.8158757226   -0.5663113920   -0.2056283592
H        0.4435876774    1.2595638406    1.2690810839
H        3.5616750669   -1.2292489849    1.0198155464
H        2.5496088577    0.1060077467    1.5230843297
14   

C       -1.7517012386   -0.3385323130    0.0232322615
C        0.3658459686   -0.7068239256    0.2950943158
C        1.6941680767   -1.4335579347    0.3945407396
C        0.1715100070    0.8460139922    0.2580722620
N        1.3303929676    1.9419754035   -1.8820160971
N       -1.2877444207    0.8855129939    0.0955710607
N       -0.7822825832   -1.3119434086    0.1368596318
N        0.8167696073    1.4476618676   -0.9155425070
N        2.6691108802   -0.7380782834    1.0790351526
O        1.9704025470   -2.4820027916   -0.1541470517
H       -2.8070286775   -0.5664885287   -0.1083592643
H        0.4937263206    1.3236680682    1.1909711222
H        3.5512317713   -1.2460524496    1.1257943165
H        2.4533502863   -0.0664634798    1.8053522850
14   

C       -1.7473089972   -0.3422132304    0.0959718929
C        0.3815438403   -0.6771151668    0.2972371969
C        1.7274310793   -1.3741258488    0.3559239051
C        0.1693303269    0.8719650175    0.2097125435
N        1.2416337217    1.8802360616   -2.0165369247
N       -1.2959729647    0.8888815656    0.1059016587
N       -0.7629912605   -1.3019472583    0.2073983286
N        0.7657299856    1.4266641230   -1.0116498042
N        2.6324487356   -0.8119915624    1.2206433041
O        2.0793986566   -2.2681579266   -0.3881356162
H       -2.8042908144   -0.5852303248    0.0139881910
H        0.5283151611    1.3879311189    1.1083135624
H        3.5268364576   -1.2994048744    1.2328636106
H        2.3431926032   -0.2953212267    2.0430449339
14   

C       -1.6973094420   -0.3432885706    0.1734544459
C        0.4404894801   -0.6331122577    0.2944091480
C        1.8085438749   -1.2822926151    0.3324212919
C        0.2002034656    0.9080628477    0.1638755492
N        1.1845038767    1.8325358395   -2.1377332329
N       -1.2685905396    0.8950479763    0.1191707912
N       -0.6926072496   -1.2834666087    0.2834339955
N        0.7458903981    1.4191455874   -1.0992943217
N        2.6231474973   -0.8926953201    1.3556022831
O        2.2817462492   -1.9034750984   -0.5991513231
H       -2.7523780738   -0.6056429960    0.1420976609
H        0.5903927531    1.4592903402    1.0281866344
H        3.5473387434   -1.3190078579    1.3262751571
H        2.2487992541   -0.5803130549    2.2449162210
14   

C       -1.6792619681   -0.3261299976    0.2997727803
C        0.4597158670   -0.5986504840    0.3087769703
C        1.8439117054   -1.2027690333    0.3335417871
C        0.2068037792    0.9306732103    0.1116478431
N        1.0999928090    1.7223572300   -2.2745168752
N       -1.2627908041    0.9077111173    0.1413742693
N       -0.6637878133   -1.2551618989    0.4197708585
N        0.6985599350    1.3712770931   -1.1990730258
N        2.5802614216   -1.0076679452    1.4574601454
O        2.4277072665   -1.5081813149   -0.6889110861
H       -2.7330006662   -0.5926392568    0.3395420257
H        0.6380235699    1.5243235778    0.9272661506
H        3.5334921895   -1.3594816617    1.4000295942
H        2.1394545058   -0.8986436857    2.3649303546
14   

C       -1.6501915837   -0.3072778176    0.4359429086
C        0.4856122177   -0.5627934452    0.3410906135
C        1.8849345913   -1.1207718136    0.3602427515
C        0.2110497949    0.9472073669    0.0661652440
N        1.0081554835    1.6141312173   -2.3906156079
N       -1.2557218008    0.9142159025    0.1652648822
N       -0.6195198281   -1.2178293231    0.5750793513
N        0.6462284205    1.3197511745   -1.2848808342
N        2.5459333391   -1.1279410189    1.5393450526
O        2.5488018945   -1.1764258564   -0.6584434596
H       -2.6980002501   -0.5773988187    0.5459189443
H        0.6725169111    1.5874485929    0.8284283525
H        3.5174804818   -1.4246179299    1.4855138415
H        2.0473292549   -1.1800918384    2.4218968394
14   

C       -1.6190803648   -0.2698724971    0.5164439203
C        0.5117357388   -0.5169950385    0.3501013812
C        1.9224868327   -1.0388321313    0.3794549617
C        0.2160623447    0.9676361074   -0.0085262956
N        0.9273026439    1.5110965817   -2.5211119426
N       -1.2462811253    0.9313788157    0.1444099427
N       -0.5748960779   -1.1609158656    0.6823426737
N        0.6015063187    1.2708179515   -1.3915879137
N        2.4964020544   -1.2534288673    1.5800398381
O        2.6552758666   -0.9070159758   -0.5841430339
H       -2.6597238255   -0.5382203451    0.6838130574
H        0.6979430093    1.6540556881    0.6991304449
H        3.4777135521   -1.5191303645    1.5573841422
H        1.9349092495   -1.4329156067    2.4065272166
14   

C       -1.5892530126   -0.2581444819    0.5702203493
C        0.5419548465   -0.4705212327    0.3761538444
C        1.9677113205   -0.9442189985    0.4209996901
C        0.2114892658    0.9814541624   -0.0582800305
N        0.8657932828    1.4235403809   -2.6058318433
N       -1.2472849841    0.9261970677    0.1228469445
N       -0.5238616338   -1.1175153839    0.7666961159
N        0.5643595136    1.2264895867   -1.4614727899
N        2.4545427461   -1.3685678446    1.6010429526
O        2.7567406250   -0.6483294031   -0.4584836910
H       -2.6211285060   -0.5359848274    0.7727338030
H        0.6918682757    1.7130108055    0.6039068783
H        3.4423586905   -1.6081448886    1.6195936266
H        1.8351143686   -1.6641086281    2.3493062436
14   

C       -1.7185991201   -0.3035610433    0.1116180741
C        0.3696438190   -0.7438078203   -0.1461933379
C        1.7067045497   -1.3940819814   -0.3581411197
C        0.2963067926    0.7348939343    0.3039455367
N        1.2683876209    2.3992370720   -1.5395590772
N       -1.1666785291    0.8474649670    0.4115188943
N       -0.8121582805   -1.2992303624   -0.2036983025
N        0.8240486323    1.6527839283   -0.7123212217
N        1.8863852030   -2.6263303012    0.1450787747
O        2.6768797546   -0.7536072791   -0.7222152046
H       -2.7949672295   -0.4597689713    0.1160969998
H        0.8035239841    0.8797656618    1.2664861163
H        2.8151368751   -3.0282430171    0.0501838924
H        1.0973112630   -3.1955499270    0.4360651417
14   

C       -1.7060139234   -0.2981542095    0.1122672328
C        0.3901938733   -0.7301349238   -0.0835396648
C        1.7393819386   -1.3651612835   -0.2542185729
C        0.2961868070    0.7704192003    0.2705846787
N        1.2759892438    2.3383134306   -1.6517442045
N       -1.1693149240    0.8739472606    0.3516883067
N       -0.7855011343   -1.2999821359   -0.1358356135
N        0.8281786992    1.6337059510   -0.7904725667
N        1.8506531664   -2.6666299661    0.0501410765
O        2.7390574421   -0.7063098568   -0.4794517447
H       -2.7807443240   -0.4653457582    0.1132225384
H        0.7886841395    0.9785939869    1.2293120111
H        2.7752294727   -3.0822423467   -0.0224732482
H        1.0297377289   -3.2368145155    0.2308182896
14   

C       -1.7037635262   -0.2952736313    0.1268209192
C        0.3984774884   -0.7219934193   -0.0024243345
C        1.7559785486   -1.3451779884   -0.1433545785
C        0.2885924185    0.7959980554    0.2512724117
N        1.2893423034    2.2532926683   -1.7458848330
N       -1.1787427301    0.8931581446    0.3030094080
N       -0.7726532330   -1.3022578978   -0.0512129498
N        0.8323953494    1.5969622071   -0.8519288067
N        1.8288888149   -2.6803349572   -0.0529481647
O        2.7696839786   -0.6783200756   -0.2522342046
H       -2.7771965770   -0.4705820900    0.1234098456
H        0.7638803381    1.0675011374    1.2029660437
H        2.7501059846   -3.1036688765   -0.1225567580
H        0.9913970778   -3.2483653504    0.0356631732
14   

C       -1.7056256426   -0.3041926413    0.1204193820
C        0.4025670370   -0.7196837734    0.0677136265
C        1.7671851627   -1.3332383370   -0.0468988937
C        0.2749303119    0.8107605644    0.2196947955
N        1.3111631642    2.1516879074   -1.8399227805
N       -1.1938671559    0.8975305543    0.2342298229
N       -0.7631504789   -1.3111635236    0.0172264074
N        0.8387431405    1.5463629422   -0.9184386623
N        1.8233543802   -2.6665452237   -0.1770542315
O        2.7855480221   -0.6647881497   -0.0503432630
H       -2.7773461492   -0.4892966162    0.1078176418
H        0.7263745854    1.1454959051    1.1629525945
H        2.7434780696   -3.0913052465   -0.2519772296
H        0.9787543009   -3.2310623998   -0.1715172228
