18   

C       -0.8336739444   -1.4334048861   -1.2121064144
C       -0.1697352743   -0.3462281972   -0.7128072135
C       -0.3635225376   -2.8679003690   -1.3806014513
C        1.0099970606    1.2742029017    0.7969276266
C       -1.4286613431    0.7542915309    1.1389835547
C       -0.0714820229    0.1949722070    0.7084843031
H       -1.4514662020   -1.1684398133   -2.0637509140
H       -0.0551281665    0.4501276543   -1.4408971910
H       -0.4133034645   -3.1636587590   -2.4327680770
H       -0.9968070027   -3.5395810796   -0.7939399992
H        0.6699438939   -2.9693062405   -1.0359895985
H        0.7760724356    2.1147432523    0.1359400828
H        1.9795280520    0.8576367215    0.5058083408
H        1.0901001253    1.6471517117    1.8229023232
H       -1.7327739979    1.5724712633    0.4780748210
H       -1.3764570263    1.1324581909    2.1646948957
H       -2.1913204001   -0.0296607260    1.0978784670
H        0.2014636009   -0.6273478049    1.3783970551
18   

C       -0.8398098099   -1.3706223320   -1.3092607874
C       -0.2381922569   -0.2587590809   -0.8086617955
C       -0.3285775671   -2.7972180965   -1.2894481677
C        1.0277187546    1.2026425154    0.7795799629
C       -1.4250348470    0.7622611017    1.1295396731
C       -0.0988465488    0.1768490060    0.6409115911
H       -1.4023553149   -1.1781841596   -2.2167636646
H       -0.2282081295    0.5852779316   -1.4905379888
H       -0.2832766805   -3.1978886855   -2.3064988459
H       -0.9959214704   -3.4245205044   -0.6914258701
H        0.6739561204   -2.8344547868   -0.8525438282
H        0.8187472379    2.0930710327    0.1782322318
H        1.9744533386    0.7671034991    0.4445931286
H        1.1388405320    1.5042720032    1.8259208616
H       -1.7024578259    1.6362305935    0.5313260884
H       -1.3436289531    1.0658151727    2.1779013027
H       -2.2209413685    0.0154769578    1.0466912017
H        0.1469777600   -0.6990545898    1.2508222914
18   

C       -0.8242707866   -1.3267154368   -1.4061564564
C       -0.3063203137   -0.1906083648   -0.8872719649
C       -0.3033438095   -2.7334403086   -1.2091878921
C        1.0328506608    1.1354270280    0.7500782068
C       -1.4263908114    0.7577426628    1.1217398596
C       -0.1291516213    0.1556099950    0.5789616335
H       -1.3230744165   -1.1957683063   -2.3605954669
H       -0.3611274822    0.6788415711   -1.5341128548
H       -0.1634682112   -3.2232989299   -2.1773881286
H       -1.0159016253   -3.3158577461   -0.6179017172
H        0.6567393661   -2.7143988831   -0.6844437967
H        0.8425607109    2.0628973851    0.2007330433
H        1.9585748454    0.6885204848    0.3739164408
H        1.1723258210    1.3767546900    1.8086029108
H       -1.6828043184    1.6727111681    0.5779707502
H       -1.3185329916    0.9989311691    2.1838407829
H       -2.2486213538    0.0437264743    1.0112131680
H        0.0958470749   -0.7590711038    1.1378456639
18   

C       -0.7716014029   -1.2839270259   -1.4816174882
C       -0.3574211586   -0.1310372482   -0.9214606145
C       -0.2866689025   -2.6744479848   -1.1472949851
C        1.0373614520    1.0982512736    0.7371036091
C       -1.4214163095    0.7573111509    1.1397821013
C       -0.1473685130    0.1490367118    0.5511803067
H       -1.1940078355   -1.1882292740   -2.4762220296
H       -0.4549426105    0.7542321335   -1.5411882284
H       -0.0750058675   -3.2298144626   -2.0658133536
H       -1.0526482321   -3.2104151018   -0.5792719272
H        0.6287937639   -2.6286686741   -0.5496666321
H        0.8556459359    2.0497863915    0.2273867581
H        1.9465472861    0.6482569704    0.3259243885
H        1.2015575374    1.2956780921    1.8011621860
H       -1.6667857558    1.6985793307    0.6374122118
H       -1.2905172582    0.9533273194    2.2085913306
H       -2.2608099733    0.0658307559    1.0155564534
H        0.0672689416   -0.7893266030    1.0732704886
18   

C       -0.6957058745   -1.2545540246   -1.5481569768
C       -0.3985501179   -0.0926264753   -0.9421290880
C       -0.2818812106   -2.6388601118   -1.1160452258
C        1.0400284898    1.0735043004    0.7185946198
C       -1.4155835606    0.7589267889    1.1545458931
C       -0.1608490008    0.1450796108    0.5314880430
H       -1.0368476392   -1.1753243559   -2.5748640464
H       -0.5266476707    0.8015209421   -1.5432329428
H       -0.0296694332   -3.2447524852   -1.9913463145
H       -1.1016427305   -3.1227124366   -0.5770151286
H        0.5948711665   -2.5944965183   -0.4631643944
H        0.8627372783    2.0390230563    0.2341771185
H        1.9356466392    0.6211455413    0.2810784268
H        1.2252831418    1.2438923460    1.7838585968
H       -1.6543673453    1.7155825687    0.6788115762
H       -1.2647814344    0.9271381713    2.2254934442
H       -2.2673631594    0.0832250130    1.0276643394
H        0.0480353065   -0.8059932150    1.0316905656
18   

C       -0.5900324873   -1.2463418167   -1.5965821440
C       -0.4226517702   -0.0827362683   -0.9494858760
C       -0.2687673155   -2.6311484366   -1.0975558449
C        1.0396531739    1.0530854204    0.7066729708
C       -1.4137736805    0.7562441948    1.1628981439
C       -0.1706695892    0.1362481441    0.5230093098
H       -0.8425615613   -1.1729406527   -2.6490121054
H       -0.5715255339    0.8144497938   -1.5411894459
H        0.0079665462   -3.2760402913   -1.9368129501
H       -1.1417620028   -3.0603020267   -0.5971514280
H        0.5686037866   -2.6059092572   -0.3942192237
H        0.8653819818    2.0244523814    0.2329026126
H        1.9271168832    0.5977279121    0.2558414391
H        1.2369886671    1.2121638491    1.7715014430
H       -1.6482219460    1.7193526289    0.6981960302
H       -1.2515692777    0.9132001927    2.2339144742
H       -2.2727732752    0.0893600416    1.0379957240
H        0.0345874335   -0.8194517297    1.0151238003
18   

C       -0.4899752133   -1.2410624136   -1.6235686469
C       -0.4686914656   -0.0836955233   -0.9457924111
C       -0.2452080909   -2.6283210756   -1.0908728950
C        1.0446048456    1.0161208517    0.6848771698
C       -1.4109638515    0.7988748021    1.1721119022
C       -0.1955519680    0.1359829100    0.5220895366
H       -0.6660555235   -1.1678931979   -2.6914646197
H       -0.6605948944    0.8102917691   -1.5298928423
H        0.0513919927   -3.2949173231   -1.9060009257
H       -1.1576823358   -3.0193159426   -0.6312959594
H        0.5552586100   -2.6216056661   -0.3455271439
H        0.8942392564    1.9888514847    0.2056364103
H        1.9122912240    0.5307828624    0.2269247893
H        1.2592906021    1.1770642435    1.7460412647
H       -1.6207799763    1.7662543725    0.7046193435
H       -1.2314459946    0.9564204664    2.2403009440
H       -2.2916761628    0.1582976014    1.0613571263
H       -0.0146400227   -0.8220280071    1.0190472895
18   

C       -0.3891869077   -1.2267656651   -1.6375780312
C       -0.5150830585   -0.0925639795   -0.9315600263
C       -0.2229356395   -2.6270428803   -1.1070041521
C        1.0297128984    1.0018699473    0.6697518967
C       -1.4187252409    0.8057079378    1.2010083641
C       -0.2200658862    0.1310665964    0.5322191222
H       -0.5786413750   -1.1472167396   -2.7027289407
H       -0.7792671995    0.7929197786   -1.5001940286
H        0.8398630374   -2.8614275740   -0.9964601396
H       -0.6712526406   -3.3450355208   -1.8000539133
H       -0.7146736464   -2.7352919365   -0.1359295250
H        0.8789267489    1.9732912493    0.1879883478
H        1.8856220227    0.5074004773    0.1995020251
H        1.2637802238    1.1662819080    1.7262567929
H       -1.6289401656    1.7733601752    0.7342735943
H       -1.2191772786    0.9652346101    2.2653573814
H       -2.3062177465    0.1717741840    1.1078613098
H       -0.0338122296   -0.8264396467    1.0283650210
18   

C       -0.2734334290   -1.2126172925   -1.6336765573
C       -0.5320326296   -0.1064674966   -0.9158979747
C       -0.2165930404   -2.6327442386   -1.1294115171
C        1.0277162850    1.0045591532    0.6615520985
C       -1.4183368720    0.8261739525    1.2129554360
C       -0.2273031490    0.1382352143    0.5441752150
H       -0.3740349198   -1.1093792340   -2.7088526798
H       -0.8179724650    0.7717035324   -1.4853613064
H        0.8233869455   -2.9294980897   -0.9649297518
H       -0.6640617866   -3.3091448259   -1.8636610075
H       -0.7669169439   -2.7317651697   -0.1890633359
H        0.8778803831    1.9700763068    0.1677333590
H        1.8780380958    0.4999901439    0.1919104917
H        1.2698761831    1.1821433368    1.7140669201
H       -1.6287580977    1.7882769285    0.7350435906
H       -1.2099012309    0.9990785279    2.2735200519
H       -2.3086723583    0.1941525288    1.1352870795
H       -0.0421402905   -0.8151357998    1.0493218934
18   

C       -0.1737253589   -1.2243199836   -1.6025073864
C       -0.5539136276   -0.1512097665   -0.8825300680
C       -0.2174370671   -2.6679401607   -1.1614523643
C        1.0276334081    1.0035210490    0.6456306431
C       -1.4135699663    0.8516683599    1.2299635834
C       -0.2326901867    0.1402981050    0.5676674776
H       -0.1917474726   -1.0881321448   -2.6785889469
H       -0.8729186268    0.7116813226   -1.4577947101
H        0.7950446586   -3.0249777888   -0.9515948668
H       -0.6545141114   -3.2886990721   -1.9491903879
H       -0.8241925567   -2.7751221210   -0.2571918383
H        0.8764797094    1.9541761977    0.1241186081
H        1.8708047404    0.4812113467    0.1825825296
H        1.2816320423    1.2121006921    1.6896082745
H       -1.6270183377    1.7999242308    0.7264742782
H       -1.1917471590    1.0550742295    2.2823793998
H       -2.3065175544    0.2203873536    1.1818907825
H       -0.0467648736   -0.8008619548    1.0957040614
18   

C       -0.0890115614   -1.2532810312   -1.5547133740
C       -0.5755706038   -0.2180918761   -0.8336746799
C       -0.2148024113   -2.7250021474   -1.2272229640
C        1.0251278134    1.0041947040    0.6270909225
C       -1.4116384716    0.8894978792    1.2416324652
C       -0.2397579753    0.1443339528    0.6005408683
H       -0.0293580702   -1.0663444606   -2.6216727062
H       -0.9405379136    0.6200574249   -1.4181870968
H        0.7672268287   -3.1369178825   -0.9771988620
H       -0.6186099955   -3.2696991818   -2.0858165379
H       -0.8846974481   -2.8697714767   -0.3741337974
H        0.8731177042    1.9295668423    0.0621312519
H        1.8623585430    0.4570259006    0.1824007610
H        1.2887228755    1.2612280917    1.6577776144
H       -1.6279235962    1.8142587140    0.6973625147
H       -1.1780078432    1.1404774686    2.2811481628
H       -2.3066950526    0.2594378540    1.2323328782
H       -0.0536239983   -0.7741579305    1.1674130658
18   

C       -0.0294133087   -1.2896162290   -1.4729457694
C       -0.5939350248   -0.2949262756   -0.7376291920
C       -0.2105651799   -2.7858309377   -1.3134086143
C        1.0260281848    1.0086691595    0.6349816755
C       -1.4085602074    0.9575441606    1.2694684620
C       -0.2474527274    0.1617628789    0.6701420109
H        0.0940540224   -1.0283543324   -2.5186748962
H       -1.0260086044    0.5045410968   -1.3306027550
H        0.7417896622   -3.2501611571   -1.0415546691
H       -0.5647308440   -3.2268467545   -2.2499196424
H       -0.9417182719   -2.9973216440   -0.5272581167
H        0.8799755036    1.8957443591    0.0101521943
H        1.8563615190    0.4253967368    0.2246678231
H        1.2963134847    1.3313985356    1.6452418926
H       -1.6208125776    1.8475380201    0.6686265569
H       -1.1655298160    1.2726199271    2.2891846796
H       -2.3089892115    0.3362057333    1.3066565428
H       -0.0679951431   -0.7207079579    1.2935744127
18   

C        0.0143144971   -1.3486016048   -1.3833532669
C       -0.6022865280   -0.3901021141   -0.6262870756
C       -0.2004080878   -2.8519935571   -1.4136350292
C        1.0344518364    1.0019125650    0.6419993659
C       -1.3995988282    1.0317907744    1.2814284423
C       -0.2497384599    0.1769162750    0.7436842311
H        0.1952277904   -1.0034714034   -2.3959379011
H       -1.1374776008    0.3407867915   -1.2236181141
H        0.7253150613   -3.3668068181   -1.1409084136
H       -0.5022184344   -3.1732779328   -2.4149804432
H       -0.9826088674   -3.1359129108   -0.7032512696
H        0.8991576101    1.8369527020   -0.0530591762
H        1.8578674446    0.3774403623    0.2815263287
H        1.3081502966    1.4025300589    1.6230262996
H       -1.6026202787    1.8753234852    0.6140693169
H       -1.1500071285    1.4219610811    2.2731958086
H       -2.3074379929    0.4263955991    1.3685656666
H       -0.0820394913   -0.6558701309    1.4349413966
