14   

C       -0.3065417934    0.8554452252   -2.0520908713
C       -0.4546071975   -0.1050800792   -0.9694483587
C       -1.0805968055    0.5379219654   -3.1382621284
C       -1.3506898695   -1.1149877132   -1.2687436784
C       -1.7304182729   -2.2922533309   -0.4666153984
C       -1.3075252423   -2.3876740099    0.9916123233
O       -2.3294401386   -3.2374974564   -0.9720184232
S       -2.0200036275   -0.9296851434   -2.8906921849
H        0.3465368661    1.7205703004   -2.0057612214
H        0.0920380123   -0.0322575335   -0.0351019979
H       -1.1170692933    1.1170168436   -4.0534648830
H       -1.7454321871   -1.5604187135    1.5561696942
H       -0.2181808576   -2.3424598708    1.0665302130
H       -1.6537871552   -3.3325631759    1.4199500739
14   

C       -0.2946146537    0.8543353996   -2.0632366869
C       -0.3905704092   -0.1379795954   -1.0036018180
C       -1.1700097573    0.6058752367   -3.0889428728
C       -1.3587959404   -1.0927946966   -1.2525436759
C       -1.6833273090   -2.3078098064   -0.4759223624
C       -1.3076733767   -2.3896239348    0.9961750368
O       -2.1351530253   -3.3085596990   -1.0232198911
S       -2.1483104417   -0.8300433037   -2.8075575952
H        0.3984979372    1.6888568013   -2.0469810493
H        0.2475000491   -0.1298686849   -0.1262533464
H       -1.2565902574    1.2162464301   -3.9801346094
H       -1.8727267594   -1.6426000041    1.5597354837
H       -0.2379118810   -2.2061643780    1.1215345591
H       -1.5443501822   -3.3831304481    1.3874688627
14   

C       -0.2472500680    0.8028544672   -2.0890824776
C       -0.3015569375   -0.2145016959   -1.0503401806
C       -1.2328573682    0.6398536604   -3.0285810671
C       -1.3545341552   -1.0924862340   -1.2209316686
C       -1.6491226625   -2.3311886240   -0.4580830067
C       -1.3278700023   -2.4003524530    1.0281803261
O       -1.9728501424   -3.3657276587   -1.0291846102
S       -2.2696669755   -0.7407641166   -2.6857324394
H        0.4977547657    1.5908389355   -2.1228164419
H        0.4284739148   -0.2814418244   -0.2508321069
H       -1.3654325507    1.2803265631   -3.8925753325
H       -2.0969435978   -1.8640205305    1.5901478918
H       -0.3540910717   -1.9502026527    1.2323120503
H       -1.3089756147   -3.4428386400    1.3582058543
14   

C       -0.2100581362    0.7893803948   -2.1149994310
C       -0.2200324475   -0.2596222585   -1.1067707268
C       -1.2786483727    0.6981936336   -2.9701734122
C       -1.3235462433   -1.0812301735   -1.2088630145
C       -1.5776250923   -2.3475233285   -0.4612913751
C       -1.3629723948   -2.3849655492    1.0448145630
O       -1.7322831720   -3.4089119416   -1.0488497906
S       -2.3422045169   -0.6494009620   -2.5794849592
H        0.5642091718    1.5456140384   -2.1904714008
H        0.5749159613   -0.3935491760   -0.3806580813
H       -1.4554125214    1.3714436993   -3.8006889004
H       -2.2712230342   -2.0418185547    1.5470163757
H       -0.5321628113   -1.7361101887    1.3307284312
H       -1.1418484709   -3.4064206177    1.3665781896
14   

C       -0.6219401595    0.8800546570   -2.0639342749
C       -1.1450669118   -0.0649323251   -1.0889284289
C       -0.4755852612    0.3165193332   -3.3061678502
C       -1.4151212492   -1.2964541590   -1.6403818861
C       -1.8168223781   -2.5434715178   -0.9060892980
C       -3.1130386117   -2.5508040735   -0.1111176764
O       -1.0245455112   -3.4563687255   -0.7369375789
S       -0.9754481255   -1.3714154970   -3.3435786516
H       -0.3631516917    1.9071574322   -1.8291030285
H       -1.2771956148    0.1702088666   -0.0378255406
H       -0.0907774353    0.8407871901   -4.1729719960
H       -3.9398219725   -2.8261297862   -0.7710032992
H       -3.3060752998   -1.5595497431    0.3062208439
H       -3.0494895652   -3.2758786640    0.7049035493
14   

C       -0.4983585779    0.8467284450   -2.0643722596
C       -0.9173150948   -0.0855629361   -1.0284651517
C       -0.5621045798    0.2927324739   -3.3180270509
C       -1.2879360180   -1.3051362919   -1.5376537288
C       -1.7648391147   -2.5112642233   -0.7692471844
C       -3.2429104060   -2.6513962672   -0.4462146728
O       -0.9797236160   -3.3504274001   -0.3625347335
S       -1.1304492981   -1.3735894181   -3.2894570270
H       -0.1687174219    1.8608435293   -1.8643969012
H       -0.9267173699    0.1539079878    0.0300369521
H       -0.2907167535    0.8124329493   -4.2294039887
H       -3.8078220848   -2.7936920562   -1.3710006631
H       -3.5978314699   -1.7472775332    0.0549522693
H       -3.4046895536   -3.5117207562    0.2092584262
14   

C       -0.4076486097    0.8153500919   -2.0198481944
C       -0.7440421611   -0.0978614223   -0.9381253719
C       -0.6851206472    0.2832450590   -3.2532392642
C       -1.2369854488   -1.2979385216   -1.3913625990
C       -1.7865034570   -2.4130662445   -0.5485148739
C       -3.2534178739   -2.7944071881   -0.6762892120
O       -1.0475526772   -3.1403789562    0.0954182174
S       -1.3539668758   -1.3418513438   -3.1490884244
H        0.0114389652    1.8039468599   -1.8644081662
H       -0.6261350375    0.1430808100    0.1137090765
H       -0.5117779673    0.7962050267   -4.1919720629
H       -3.5480461254   -2.8230500931   -1.7279259826
H       -3.8664028264   -2.0557163021   -0.1534181187
H       -3.4253089241   -3.7787302976   -0.2319376075
14   

C       -0.3297919646    0.7853784720   -2.0242358530
C       -0.6382617849   -0.1261216702   -0.9330614708
C       -0.7584377547    0.3075160777   -3.2360617757
C       -1.2578311543   -1.2794122889   -1.3598061234
C       -1.8276026026   -2.3393563969   -0.4745410517
C       -3.2384270635   -2.8552834843   -0.7184025436
O       -1.1176405569   -2.9397640343    0.3196301895
S       -1.5395931150   -1.2641396474   -3.1005008727
H        0.1764274653    1.7354642106   -1.8893311438
H       -0.4155802373    0.0813282785    0.1091217393
H       -0.6319416202    0.8301550682   -4.1769368860
H       -3.3779079141   -3.1048180300   -1.7726688025
H       -3.9603613909   -2.0861498135   -0.4316950167
H       -3.4179388203   -3.7511267858   -0.1173123133
14   

C       -0.2647011472    0.7737389140   -2.0497158837
C       -0.5570472603   -0.1356684096   -0.9524829017
C       -0.8238303223    0.3581742518   -3.2309975361
C       -1.3000820959   -1.2283284570   -1.3470606837
C       -1.8651163358   -2.2571847922   -0.4338124941
C       -3.2149375171   -2.8929964396   -0.7337063023
O       -1.1824790589   -2.7286443510    0.4671185346
S       -1.7145039007   -1.1506402438   -3.0597689263
H        0.3240025601    1.6784258049   -1.9398272100
H       -0.2362346733    0.0278428735    0.0719939840
H       -0.7307532722    0.8911812593   -4.1699500775
H       -3.2312976956   -3.2895775450   -1.7515548270
H       -4.0030426701   -2.1434539345   -0.6237660655
H       -3.4053026990   -3.7116391533   -0.0339047925
14   

C       -0.2137574806    0.7509424411   -2.0810933757
C       -0.5107853899   -0.1501515131   -0.9782809578
C       -0.8788734169    0.4034070262   -3.2290949962
C       -1.3729220135   -1.1669913658   -1.3360935539
C       -1.9360842633   -2.1781790101   -0.4091852739
C       -3.2262287880   -2.9092162272   -0.7516566984
O       -1.3019172712   -2.5312447509    0.5789154469
S       -1.8816471063   -1.0284044946   -3.0194649428
H        0.4548296784    1.6013749152   -1.9983682510
H       -0.1073201375   -0.0367780034    0.0236814175
H       -0.8003304291    0.9431407489   -4.1655234280
H       -3.1513081094   -3.3661766172   -1.7413497359
H       -4.0607705144   -2.2032662644   -0.7391285432
H       -3.4160557791   -3.6949998809   -0.0150055014
14   

C       -0.1762593502    0.7332294161   -2.1015453526
C       -0.4698753351   -0.1626618289   -0.9935717124
C       -0.9431258847    0.4622517617   -3.2060017107
C       -1.4424016995   -1.0931795458   -1.3023089839
C       -1.9927736353   -2.1044403436   -0.3714735702
C       -3.2306189115   -2.9085831392   -0.7412622274
O       -1.4132207524   -2.3549658378    0.6803912698
S       -2.0445311470   -0.8868225877   -2.9474878013
H        0.5642079019    1.5247328993   -2.0534983648
H        0.0166160495   -0.1090447803   -0.0239214950
H       -0.8834508427    1.0116448713   -4.1381938136
H       -3.0722465883   -3.4250568870   -1.6912819029
H       -4.0907967694   -2.2398100303   -0.8292163446
H       -3.4374012702   -3.6518372677    0.0339549895
14   

C       -0.1398066308    0.6900776664   -2.1089646483
C       -0.4399870213   -0.2006549647   -0.9985703237
C       -0.9905634528    0.5043688004   -3.1687924724
C       -1.5113528857   -1.0332458531   -1.2567245076
C       -2.0595452104   -2.0468075813   -0.3281696986
C       -3.2471366318   -2.9084360068   -0.7313763348
O       -1.5579644205   -2.2042578899    0.7805844471
S       -2.1843065457   -0.7532483013   -2.8630562735
H        0.6659967253    1.4164068039   -2.0948130682
H        0.1140036108   -0.2147924206   -0.0643690178
H       -0.9405862874    1.0649885567   -4.0948497350
H       -3.0058454727   -3.4743284927   -1.6348291947
H       -4.1173844647   -2.2745641230   -0.9200967752
H       -3.4878392930   -3.6106361155    0.0718238712
14   

C       -0.1157398923    0.6562634667   -2.1057691104
C       -0.4080271488   -0.2373615760   -0.9956183574
C       -1.0562115528    0.5735422282   -3.1007480080
C       -1.5708550505   -0.9584949081   -1.1821617379
C       -2.1055814874   -1.9836147615   -0.2573902270
C       -3.2543445599   -2.8878344062   -0.6798489492
O       -1.6743232407   -2.0663163370    0.8881755346
S       -2.3297514655   -0.5842793695   -2.7300224379
H        0.7497210522    1.3097012695   -2.1385483821
H        0.2182721521   -0.3350501545   -0.1135876707
H       -1.0268589668    1.1532991264   -4.0158413417
H       -2.9306771423   -3.5344017896   -1.4996613124
H       -4.1060049251   -2.2854363280   -1.0056131504
H       -3.5660431737   -3.5122485869    0.1622294112
14   

C       -0.0996297912    0.6145465911   -2.1190381504
C       -0.3999016519   -0.2788660712   -1.0108762343
C       -1.1011112423    0.6345096469   -3.0558674773
C       -1.6328272759   -0.8873203105   -1.1334554190
C       -2.1730206403   -1.9205873837   -0.2173056566
C       -3.2577898419   -2.8800509811   -0.6852782828
O       -1.8476585908   -1.9289745745    0.9647551831
S       -2.4445338790   -0.4199812175   -2.6283211534
H        0.8150984962    1.1932385960   -2.1930368969
H        0.2723406912   -0.4587692239   -0.1770355002
H       -1.0772193892    1.2311280233   -3.9602212924
H       -2.8484621263   -3.5525442450   -1.4436886343
H       -4.0987184682   -2.3246589291   -1.1074902369
H       -3.6180351986   -3.4753117937    0.1585409610
14   

C       -0.0774863879    0.5527855212   -2.1178010623
C       -0.3906852830   -0.3332301495   -1.0072601032
C       -1.1242379801    0.6746536866   -2.9954095238
C       -1.6771755629   -0.8264753962   -1.0631013315
C       -2.2433077816   -1.8538892055   -0.1488016513
C       -3.2382223312   -2.8812379612   -0.6692750452
O       -2.0537401969   -1.7811944517    1.0589874196
S       -2.5268026769   -0.2694956569   -2.5049958242
H        0.8778609046    1.0531295841   -2.2364314973
H        0.3122388512   -0.5907481584   -0.2206279196
H       -1.1004111433    1.2837221503   -3.8914336437
H       -2.7336904652   -3.5569563093   -1.3648785071
H       -4.0652646154   -2.3845418001   -1.1819724083
H       -3.6403043997   -3.4659592814    0.1629306888
14   

C       -0.0683469152    0.4832954609   -2.1269849223
C       -0.3906636079   -0.4092954432   -1.0242410757
C       -1.1523771976    0.7269994436   -2.9307939805
C       -1.7159660733   -0.7826698754   -1.0095420520
C       -2.3234443515   -1.7980050239   -0.0974803990
C       -3.2064670613   -2.8988721680   -0.6670429396
O       -2.2862138867   -1.6511708156    1.1159005964
S       -2.6009098617   -0.1053960901   -2.3762099320
H        0.9189032321    0.9012963739   -2.2935160783
H        0.3351752125   -0.7554830144   -0.2948023345
H       -1.1300027944    1.3618236669   -3.8088009938
H       -2.5872706853   -3.6120820650   -1.2173924792
H       -3.9561525216   -2.4779976464   -1.3408729218
H       -3.7173027220   -3.4254845275    0.1440039503
14   

C       -0.0589788246    0.4168979111   -2.1765495228
C       -0.3938758657   -0.4943642497   -1.0927200614
C       -1.1638043301    0.7964160442   -2.8953755097
C       -1.7418161475   -0.7495755374   -1.0120213468
C       -2.4115914334   -1.7288531260   -0.0910236035
C       -3.1377370387   -2.9302512337   -0.6766125033
O       -2.5471705920   -1.4862142054    1.0974299167
S       -2.6463463906    0.0722907571   -2.2814888912
H        0.9503125335    0.7527542680   -2.3902106430
H        0.3403665244   -0.9321334058   -0.4237225981
H       -1.1375784231    1.4690757049   -3.7446316708
H       -2.4050854612   -3.6764252748   -0.9948158572
H       -3.7374447734   -2.6282512438   -1.5384231953
H       -3.7951007596   -3.3747547137    0.0758377162
14   

C       -0.6052816908    1.0091775170   -2.0888250090
C       -1.1464987589    0.3438660674   -0.9131341308
C       -0.5009997174    0.1617972725   -3.1629389351
C       -1.4240385114   -0.9810423145   -1.1402192483
C       -2.0007126556   -1.9753138371   -0.1647514271
C       -1.0666035531   -2.7431402129    0.7553394897
O       -3.2050976050   -2.1360297022   -0.0667222928
S       -1.0528722659   -1.4682729144   -2.7903979496
H       -0.3229342629    2.0564798205   -2.1116275283
H       -1.3201671664    0.8423494628    0.0351358014
H       -0.1268003015    0.4543463178   -4.1369701928
H       -0.4168965933   -2.0439669543    1.2878853435
H       -0.4504952251   -3.4257187393    0.1644918173
H       -1.6451405905   -3.3198295880    1.4824515524
14   

C       -0.4871542897    0.9742211395   -2.0568033314
C       -0.9474172067    0.2149028808   -0.9040266189
C       -0.5328198867    0.2392091025   -3.2143030927
C       -1.2838391138   -1.0800864315   -1.2256654796
C       -1.9347339465   -2.0913443136   -0.3261043314
C       -1.2142315710   -2.5312457218    0.9386401981
O       -3.1124617685   -2.3836764894   -0.4572348947
S       -1.1222722875   -1.3987445953   -2.9496634089
H       -0.1610380247    2.0077519594   -2.0066104690
H       -1.0425169773    0.6359851279    0.0915697216
H       -0.2461586307    0.6164943068   -4.1888617648
H       -0.6272881996   -1.7045656520    1.3462122909
H       -0.5433351634   -3.3611341277    0.7019863262
H       -1.9386070916   -2.8592730145    1.6892018380
14   

C       -0.4234991431    0.9296278570   -2.0361253738
C       -0.8243100039    0.1375057862   -0.8833355230
C       -0.6092328602    0.2582292419   -3.2177554182
C       -1.2573627321   -1.1247078004   -1.2333179558
C       -1.8960043232   -2.1382527483   -0.3434972628
C       -1.2762761074   -2.4418399406    1.0128229922
O       -3.0198234132   -2.5627668352   -0.5726440856
S       -1.2616401906   -1.3595422917   -2.9790499223
H       -0.0383938684    1.9416012761   -1.9677226399
H       -0.8127898548    0.5184453211    0.1324751534
H       -0.3881075904    0.6699704551   -4.1954261093
H       -0.8262726894   -1.5427133248    1.4395229270
H       -0.5021960935   -3.2042703709    0.8929241524
H       -2.0412410881   -2.8152408402    1.6992619180
14   

C       -0.3897662687    0.8964937516   -2.0364351736
C       -0.7374800805    0.0719919908   -0.8891600050
C       -0.6982548454    0.2884814238   -3.2263109967
C       -1.2639674749   -1.1519888433   -1.2544037807
C       -1.8611434866   -2.1918134354   -0.3796199062
C       -1.3066648292   -2.4141911418    1.0204042860
O       -2.9082092892   -2.7510237967   -0.6832084283
S       -1.4082450992   -1.3068972461   -3.0042623761
H        0.0496704862    1.8852848243   -1.9572060211
H       -0.6173707836    0.4058994836    0.1358856885
H       -0.5325319425    0.7328923713   -4.2006326276
H       -1.1010096244   -1.4592230122    1.5085555001
H       -0.3808242222   -2.9917322946    0.9556041337
H       -2.0297518146   -2.9690341157    1.6248426635
14   

C       -0.3436589718    0.8790896168   -2.0286630341
C       -0.6420081041    0.0209014014   -0.8923394750
C       -0.8080609523    0.3586914555   -3.2092306175
C       -1.3014107853   -1.1379791521   -1.2575414775
C       -1.8598170092   -2.1968289221   -0.3906537969
C       -1.3224493949   -2.3826866715    1.0205372331
O       -2.8383137072   -2.8506162734   -0.7374369261
S       -1.6140574878   -1.1910152438   -2.9923719198
H        0.1774032144    1.8272794962   -1.9478778107
H       -0.3864552249    0.2817781117    0.1292306239
H       -0.7000397468    0.8402041501   -4.1739842593
H       -1.4110829372   -1.4492781126    1.5815312503
H       -0.2717786840   -2.6810178523    0.9755714830
H       -1.8905943775   -3.1615049974    1.5371009570
14   

C       -0.3115284146    0.8590296666   -2.0500534129
C       -0.5657069667   -0.0318939899   -0.9283241354
C       -0.8765374140    0.4042412534   -3.2135057438
C       -1.3066916913   -1.1437342377   -1.2849035480
C       -1.8115499548   -2.2397516592   -0.4379145525
C       -1.3208431456   -2.3805464099    0.9951791739
O       -2.6770608332   -3.0098379120   -0.8449375615
S       -1.7314763029   -1.1188774635   -2.9972358545
H        0.2557328900    1.7805534174   -1.9718956992
H       -0.2147697250    0.1694638490    0.0783660603
H       -0.8124287884    0.9173055902   -4.1658362409
H       -1.5464755564   -1.4704376207    1.5565356086
H       -0.2412364503   -2.5516608883    0.9988094399
H       -1.8163035490   -3.2274972264    1.4782684010
14   

C       -0.3066924164    0.8648430538   -2.0602561105
C       -0.5085707788   -0.0624512893   -0.9575424371
C       -0.9773836410    0.4801447384   -3.1923659501
C       -1.3294720944   -1.1237153871   -1.2930204723
C       -1.7724029326   -2.2610624425   -0.4683687259
C       -1.3152675356   -2.3771666976    0.9779159521
O       -2.5113566758   -3.1274156332   -0.9287933249
S       -1.8767144509   -1.0158055111   -2.9672974556
H        0.3050278348    1.7583412644   -1.9927381440
H       -0.0581449585    0.0739021548    0.0200627947
H       -0.9631961087    1.0275634835   -4.1274654402
H       -1.6493067565   -1.5027443429    1.5422325246
H       -0.2247665711   -2.4400413112    1.0167036294
H       -1.7394380607   -3.2768276284    1.4327451965
