15   

C        2.3735518359   -0.8682187565   -1.0115462200
C        1.3057966043   -1.3292230266   -0.2891817577
C        3.4829494026   -1.6362979520   -1.7090710822
C       -0.8572753341   -0.4581750877   -1.1956075110
C       -0.0969922014   -1.7006085788   -0.7412463602
H        2.7543765149    0.0793900301   -0.6454422128
H        1.2943012174   -0.9854547301    0.7397281038
H        4.3819943414   -1.0183530328   -1.7919986651
H        3.1610976869   -1.9269233770   -2.7132611966
H        3.7274289080   -2.5397569632   -1.1427145819
H       -0.3416434250    0.0202408333   -2.0339627848
H       -0.9343498619    0.2587939581   -0.3719107416
H       -1.8673362923   -0.7332214035   -1.5142198017
H       -0.6345858392   -2.1731952833    0.0870452906
H       -0.0376885818   -2.4217860600   -1.5626700693
15   

C        2.4056407375   -0.8120111949   -0.9165608482
C        1.3162227935   -1.2303407743   -0.2171538569
C        3.3824520756   -1.6530253005   -1.7135338488
C       -0.8744008122   -0.4707608597   -1.1469922300
C       -0.0284022049   -1.6789077656   -0.7560494253
H        2.9116263441    0.0285613462   -0.4534322146
H        1.2399763579   -0.8349700513    0.7902970903
H        3.3330586233   -1.3801552809   -2.7716406938
H        3.1386517758   -2.7149616489   -1.6127295302
H        4.4029974441   -1.4916184672   -1.3537930905
H       -0.3686612324    0.1133600585   -1.9221864448
H       -1.0448011077    0.1698879127   -0.2759085371
H       -1.8436355139   -0.8014910937   -1.5324824555
H       -0.5521474501   -2.2623446914    0.0078643403
H        0.1227306844   -2.3215898237   -1.6293560315
15   

C        2.4586566581   -0.7799995848   -0.8202286628
C        1.3375753500   -1.1406327736   -0.1543898557
C        3.3012202945   -1.6572509270   -1.7196575644
C       -0.8889096713   -0.4954329559   -1.0774667115
C        0.0474580380   -1.6562206776   -0.7552464257
H        3.0362798529   -0.0003301566   -0.3350076765
H        1.2096875870   -0.6934104917    0.8257691397
H        3.2221657044   -1.3146690967   -2.7554959801
H        2.9619200076   -2.6961963417   -1.6657626459
H        4.3504395880   -1.6153336802   -1.4125382662
H       -0.4183742575    0.1826060629   -1.7965252343
H       -1.1282333285    0.0641068733   -0.1677177701
H       -1.8196434047   -0.8744921864   -1.5104626663
H       -0.4374273282   -2.3381097139   -0.0494999552
H        0.2642413420   -2.2152468269   -1.6712680518
15   

C        2.5138212965   -0.7852841050   -0.7248321681
C        1.3526283772   -1.0710969314   -0.1035017083
C        3.2401527660   -1.6516475141   -1.7252620886
C       -0.8787256972   -0.5176975375   -1.0639887155
C        0.1027505786   -1.6384091936   -0.7347261905
H        3.1500033393   -0.0738021741   -0.2091066202
H        1.1980529885   -0.5966421361    0.8598417431
H        3.1347072789   -1.2309007733   -2.7294965729
H        2.8315543978   -2.6666930917   -1.7230050643
H        4.3037834776   -1.7044072037   -1.4746331660
H       -0.4253297852    0.1874114617   -1.7679349535
H       -1.1603710316    0.0218908462   -0.1543571993
H       -1.7829094009   -0.9337912113   -1.5187377990
H       -0.3641121420   -2.3482194539   -0.0445571381
H        0.3576825137   -2.1781578595   -1.6522572243
15   

C        2.5561628544   -0.8140512040   -0.6487534651
C        1.3571190314   -1.0128242777   -0.0739639107
C        3.1924969110   -1.6343942060   -1.7421561437
C       -0.8451433283   -0.5312426414   -1.1269051853
C        0.1331565492   -1.6246623341   -0.7090658792
H        3.2375441592   -0.1717057661   -0.1010541464
H        1.1934789584   -0.5263067179    0.8817980353
H        3.0576140743   -1.1385496732   -2.7078517542
H        2.7450402847   -2.6314975970   -1.7895958936
H        4.2637437250   -1.7466651924   -1.5507117493
H       -0.3769474463    0.1369004551   -1.8566833827
H       -1.1545773603    0.0559391843   -0.2565848208
H       -1.7343537150   -0.9786750206   -1.5814807036
H       -0.3502903597   -2.2957718257    0.0078914382
H        0.4119843841   -2.2158488916   -1.5865597561
15   

C        2.5950509397   -0.8605971049   -0.5973056442
C        1.3552621282   -0.9499445984   -0.0894228483
C        3.1754760651   -1.6369920841   -1.7499758663
C       -0.8785907848   -0.5409449412   -1.1028340124
C        0.1460719659   -1.6006631993   -0.7101709436
H        3.3039294880   -0.2763224584   -0.0202594931
H        1.1797311162   -0.4213663700    0.8415895933
H        3.0192421550   -1.0910964776   -2.6850023071
H        2.7075923628   -2.6224047355   -1.8301917652
H        4.2499417655   -1.7792604879   -1.6013238604
H       -0.4473333656    0.1486492259   -1.8354657701
H       -1.1950377076    0.0286171182   -0.2234372983
H       -1.7581092477   -1.0176422875   -1.5464570155
H       -0.3009470570   -2.2937545249    0.0095015112
H        0.4283746586   -2.1749067600   -1.5974146834
15   

C        2.6215789214   -0.9209637067   -0.5384793496
C        1.3553191364   -0.8997938485   -0.0946607957
C        3.1620882680   -1.6334934833   -1.7499135504
C       -0.8295595648   -0.5455147960   -1.2309725176
C        0.1518582677   -1.5814066917   -0.6922834593
H        3.3364029306   -0.3266787758    0.0207189846
H        1.1745453291   -0.3306696398    0.8110715850
H        4.0926207747   -1.1607748331   -2.0777336926
H        2.4456443209   -1.5902333926   -2.5754349323
H        3.3656877840   -2.6809177511   -1.5086766117
H       -0.3559810907    0.0545748629   -2.0142412816
H       -1.1605335579    0.1189306835   -0.4265233277
H       -1.7063405990   -1.0458007790   -1.6535802873
H       -0.3411643031   -2.1805509867    0.0798069301
H        0.4504920301   -2.2598683317   -1.4969429530
15   

C        2.6382275601   -0.9874289253   -0.4970521143
C        1.3537414163   -0.8493666195   -0.1314755761
C        3.1723854545   -1.6360527949   -1.7471626238
C       -0.8576546055   -0.5480902228   -1.2345691702
C        0.1500260188   -1.5587287161   -0.6965001268
H        3.3644631066   -0.4463219030    0.1001599714
H        1.1705984719   -0.2399307955    0.7471715307
H        4.1017327098   -1.1472969066   -2.0542394253
H        2.4520844710   -1.5501042277   -2.5660789407
H        3.3761982323   -2.6947380056   -1.5617593832
H       -0.4083376330    0.0453756893   -2.0369253134
H       -1.1848149603    0.1250656382   -0.4358439880
H       -1.7337355583   -1.0697624748   -1.6320915341
H       -0.3202224962   -2.1512792799    0.0946610851
H        0.4453763550   -2.2465270696   -1.4945505846
15   

C        2.6493203642   -1.0582482440   -0.4696822067
C        1.3591320631   -0.8036372281   -0.1897052184
C        3.2062787545   -1.6417884333   -1.7433231483
C       -0.9065925556   -0.5466122501   -1.1970121638
C        0.1462692589   -1.5359306173   -0.7078342462
H        3.3754957829   -0.5662049914    0.1686577534
H        1.1769303139   -0.1409644539    0.6497670551
H        4.1432767795   -1.1419011412   -2.0060976620
H        2.5010099041   -1.5098710788   -2.5693436255
H        3.4018887987   -2.7099299163   -1.6109994917
H       -0.5054162014    0.0605503410   -2.0145252360
H       -1.2157606990    0.1151618603   -0.3818525128
H       -1.7860491142   -1.0870866692   -1.5605709397
H       -0.2763597572   -2.1440064509    0.0982892608
H        0.4252729054   -2.2104868130   -1.5231653293
15   

C        2.6547186892   -1.1314100546   -0.4575390815
C        1.3706826846   -0.7701340745   -0.2670733459
C        3.2662222370   -1.6460291784   -1.7389919245
C       -0.9574218084   -0.5447883463   -1.1445960399
C        0.1383665772   -1.5181182867   -0.7216335366
H        3.3674170913   -0.6840533252    0.2272217734
H        1.1955287940   -0.0467803694    0.5223638118
H        4.2125886041   -1.1337342902   -1.9361597719
H        2.5929345807   -1.4701957323   -2.5834797105
H        3.4567609524   -2.7200970214   -1.6569965021
H       -0.6126187815    0.0741334755   -1.9788926048
H       -1.2332819704    0.1064764643   -0.3093639638
H       -1.8456322420   -1.0989620513   -1.4635520171
H       -0.2273292744   -2.1412667362    0.1006728885
H        0.3863825479   -2.1783227609   -1.5587857918
15   

C        2.6322763615   -1.2128152787   -0.4682338122
C        1.3606485415   -0.7654941447   -0.3585020237
C        3.3354913951   -1.6467012173   -1.7357276380
C       -1.0253490123   -0.5335293552   -1.0825650021
C        0.0932923599   -1.5084043168   -0.7276899144
H        3.3149257555   -0.8077285473    0.2713290514
H        1.2062403605    0.0171471562    0.3769384929
H        4.2890186384   -1.1200436530   -1.8375920864
H        2.7170084156   -1.4232846979   -2.6104077449
H        3.5276318328   -2.7231777475   -1.7063578453
H       -0.7334479592    0.0810000783   -1.9400171457
H       -1.2456627642    0.1217699866   -0.2341741716
H       -1.9334365406   -1.0866299655   -1.3418431087
H       -0.2188505063   -2.1308176721    0.1169619226
H        0.2875116140   -2.1682148887   -1.5794527817
15   

C        2.6108296485   -1.2923018076   -0.5147432211
C        1.3471520620   -0.7909623224   -0.4775920429
C        3.4428644883   -1.6432349386   -1.7320459790
C       -1.0947081360   -0.5178060918   -0.9959411416
C        0.0363365049   -1.5098985856   -0.7402647845
H        3.2412702546   -0.9162578369    0.2842186593
H        1.2234351349    0.0603600414    0.1837112252
H        4.3928452174   -1.1009317001   -1.7110589832
H        2.9064318810   -1.3760153927   -2.6475692080
H        3.6489917989   -2.7173865178   -1.7464013731
H       -0.8666445492    0.0969758692   -1.8724210239
H       -1.2350726189    0.1360294091   -0.1296974271
H       -2.0286946720   -1.0572549572   -1.1814642953
H       -0.2115257527   -2.1367531436    0.1222297025
H        0.1494366824   -2.1635604992   -1.6111693704
15   

C        2.5863756649   -1.3695261418   -0.5843765006
C        1.3240329274   -0.8417411049   -0.6107319495
C        3.5568764243   -1.6376178147   -1.7219315120
C       -1.1540898633   -0.4992600611   -0.9074760265
C       -0.0303147194   -1.5212723827   -0.7560024768
H        3.1357737173   -1.1071084531    0.3136622480
H        1.2375865954    0.0725289687   -0.0328658965
H        3.4472927012   -0.8730537917   -2.4966697509
H        3.3529484228   -2.6174057718   -2.1633792112
H        4.5879383024   -1.6233690116   -1.3562315236
H       -0.9884408576    0.1138185314   -1.7990934841
H       -1.2012543082    0.1535614968   -0.0304964216
H       -2.1142707176   -1.0139339722   -1.0118011693
H       -0.2163154994   -2.1498871932    0.1206432376
H       -0.0133246969   -2.1696639297   -1.6378662469
