17   

C        5.9160162759    0.1241691139   -0.8424625394
C        4.6764425716   -0.6282312984   -1.0436197808
C        5.9745702397    1.0491153887    0.1697229332
C        3.5816452153   -0.4470019345   -0.2372720023
C        4.8151393792    1.2592241108    1.0121770799
C        2.2659951024   -1.1421536125   -0.4086026817
C        2.1084933015   -2.3304936905   -1.3468593999
N        3.6767931150    0.5176893037    0.7956492481
O        4.8249994124    2.0827146172    1.9098787206
O        1.2844112229   -0.7092932295    0.1842437942
H        6.7742099848   -0.0419464202   -1.4856499550
H        4.6403605619   -1.3396730317   -1.8611104662
H        6.8603225357    1.6381377475    0.3634003886
H        2.8202240966   -3.1141028951   -1.0741937889
H        2.2878720745   -2.0163289659   -2.3781852200
H        1.0941046329   -2.7323019829   -1.2701874862
H        2.8792448830    0.7370470266    1.3843174199
17   

C        5.9082920527    0.1521072156   -0.8590350384
C        4.6589055294   -0.5745044709   -1.0908287193
C        5.9898049420    1.0071404552    0.2113534052
C        3.5834660551   -0.4497416214   -0.2487894074
C        4.8442441611    1.1705921298    1.0828100963
C        2.2471792405   -1.0928431639   -0.4736933631
C        2.1035376031   -2.3447172212   -1.3275556970
N        3.6995514436    0.4463844762    0.8419384842
O        4.8701960356    1.9411297348    2.0260373954
O        1.2419971995   -0.5386245452   -0.0465966649
H        6.7541437901    0.0247719192   -1.5269401388
H        4.5966183790   -1.2165374584   -1.9623864181
H        6.8824096825    1.5774205892    0.4282602311
H        2.7507603251   -3.1338912905   -0.9358964955
H        2.3795466511   -2.1261107718   -2.3620034689
H        1.0671096923   -2.6933435152   -1.3037713243
H        2.9035110194    0.6640571986    1.4328046862
17   

C        5.8961588561    0.2001052459   -0.9316567361
C        4.6328663803   -0.5018082196   -1.1635495827
C        6.0333016484    0.9621561225    0.2014779396
C        3.6045282893   -0.4538555016   -0.2576512753
C        4.9308560113    1.0548560098    1.1367611320
C        2.2465296070   -1.0559567065   -0.4933323175
C        2.0809849158   -2.3631181633   -1.2570599819
N        3.7735770398    0.3510530250    0.8952480482
O        5.0030646122    1.7484738569    2.1356240761
O        1.2512824461   -0.4054407909   -0.2061265544
H        6.7075859269    0.1296011732   -1.6488670232
H        4.5214904807   -1.0556133505   -2.0887011260
H        6.9378111734    1.5122167461    0.4212624974
H        2.4711764261   -3.1881179726   -0.6552118980
H        2.6158591341   -2.3243467240   -2.2082492780
H        1.0212559026   -2.5433583384   -1.4589401827
H        3.0037475484    0.5431184481    1.5275501385
17   

C        5.8841715263    0.2568955547   -0.9774158368
C        4.6132479791   -0.4209492860   -1.2363174634
C        6.0418020244    0.9414708930    0.2018645571
C        3.6013425379   -0.4282471819   -0.3126142550
C        4.9527150384    0.9787229477    1.1571396415
C        2.2352875803   -1.0068648768   -0.5900788114
C        2.0828975000   -2.3896353230   -1.2096180811
N        3.7866654985    0.2998190151    0.8874267164
O        5.0435037523    1.6024505723    2.1995992612
O        1.2549137168   -0.2830536710   -0.5134046149
H        6.6842777086    0.2304116070   -1.7101475799
H        4.4767227373   -0.9070251632   -2.1960058287
H        6.9526947540    1.4712226915    0.4440415621
H        2.1403108398   -3.1458739606   -0.4223454607
H        2.8727528904   -2.5774645319   -1.9398563261
H        1.1133239616   -2.4696232168   -1.7090647913
H        3.0292148843    0.4626905237    1.5416717423
17   

C        5.8674268098    0.3782147460   -1.0414318894
C        4.5899982013   -0.2778304771   -1.3226331220
C        6.0468579294    0.9818570694    0.1784006634
C        3.5912782317   -0.3358162693   -0.3893739771
C        4.9728664400    0.9588118688    1.1513938946
C        2.2241240464   -0.9227172934   -0.6800819235
C        2.0855604249   -2.3914655192   -1.0512389136
N        3.7963171325    0.3101827881    0.8536230545
O        5.0860303302    1.5006314414    2.2365445098
O        1.2725267753   -0.1776292616   -0.8361910436
H        6.6557612518    0.3961318977   -1.7870587871
H        4.4323320702   -0.7139764425   -2.3034301106
H        6.9647205433    1.4892293231    0.4413196827
H        2.0459819491   -2.9930040608   -0.1393642872
H        2.9396089806   -2.7128276755   -1.6522696815
H        1.1667532013   -2.5484416371   -1.6230091931
H        3.0582117409    0.4236024861    1.5389784620
17   

C        5.8224950940    0.5270563606   -1.1290760894
C        4.5511075813   -0.1149899769   -1.4645072484
C        6.0044184133    1.0095520749    0.1432436939
C        3.5478537131   -0.2468975202   -0.5457813942
C        4.9387034288    0.8756398003    1.1162851132
C        2.2190782802   -0.9123643688   -0.8553202577
C        2.0198710872   -2.3871314443   -0.5450172545
N        3.7621089221    0.2571335710    0.7602556742
O        5.0605215066    1.2880932925    2.2559230290
O        1.2871430145   -0.2533364983   -1.2786800561
H        6.6064226950    0.6228055791   -1.8734291298
H        4.4001879241   -0.4880535317   -2.4722872536
H        6.9203013134    1.4953927733    0.4501147531
H        2.4289702545   -2.6179723801    0.4419732097
H        2.5360963707   -2.9908978301   -1.2958259339
H        0.9542313036   -2.6325064337   -0.5573328326
H        3.0414977132    0.2714640848    1.4724314228
17   

C        5.7967353599    0.6521266233   -1.1636609407
C        4.5367766902    0.0094347126   -1.5381775611
C        5.9863002124    1.0239009849    0.1441589813
C        3.5413465505   -0.2103252775   -0.6269185319
C        4.9393755430    0.7756672753    1.1149368556
C        2.2620803939   -0.9397178983   -0.9788140454
C        1.9424483881   -2.2687074360   -0.3097483984
N        3.7693543225    0.1687696767    0.7194810395
O        5.0717661785    1.0764870497    2.2877858198
O        1.3949635532   -0.3917246713   -1.6356852497
H        6.5677749173    0.8301387776   -1.9063656028
H        4.3869079137   -0.2962491447   -2.5688124377
H        6.8960580805    1.5008854727    0.4816356122
H        2.2972334420   -2.2714323516    0.7237119963
H        2.4373239296   -3.0757702312   -0.8563690511
H        0.8628380625   -2.4425388709   -0.3174092335
H        3.0695814857    0.0863199568    1.4472168656
17   

C        5.7605424998    0.7986968783   -1.1483043141
C        4.5144051611    0.1466355658   -1.5509756486
C        5.9739870368    1.0514009161    0.1842070997
C        3.5492855179   -0.1866642816   -0.6395001967
C        4.9652258832    0.6716897048    1.1533010486
C        2.3169975310   -0.9543562677   -1.0464371933
C        1.8997034009   -2.1934300547   -0.2669796072
N        3.8038728692    0.0654644395    0.7318765124
O        5.1229647939    0.8586771916    2.3464935174
O        1.5514733184   -0.5003881308   -1.8801609597
H        6.5038282230    1.0736444104   -1.8897538683
H        4.3494030895   -0.0758686563   -2.6007564202
H        6.8765217383    1.5267695280    0.5427084636
H        1.7428057744   -1.9448873303    0.7851465385
H        2.6818965229   -2.9533002285   -0.3451234867
H        0.9714426314   -2.5988710274   -0.6796121577
H        3.1398168927   -0.1312073860    1.4706338545
17   

C        5.7514634345    0.8935058170   -1.1350449283
C        4.5300369650    0.2111095919   -1.5620081477
C        5.9787685430    1.0639358924    0.2082839236
C        3.5998078717   -0.2308578743   -0.6592301219
C        5.0089951103    0.5688500504    1.1652076325
C        2.4004493313   -1.0193468075   -1.1057766625
C        1.8707344988   -2.1637968499   -0.2534630618
N        3.8686766188   -0.0616471670    0.7223615326
O        5.1812516133    0.6800784871    2.3658304552
O        1.7582558882   -0.6634972888   -2.0813397249
H        6.4659863359    1.2544818441   -1.8678303865
H        4.3556102075    0.0533864476   -2.6221981024
H        6.8647697414    1.5568373453    0.5839303959
H        1.4123149030   -1.7712989761    0.6574124818
H        2.6913317211   -2.8358898345    0.0119745687
H        1.1218015708   -2.7290364270   -0.8155761609
H        3.2378032521   -0.3548728639    1.4580525993
17   

C        5.7382763647    0.9577397390   -1.1174992483
C        4.5306667650    0.2565790621   -1.5532354355
C        6.0034131195    1.0464739193    0.2267395159
C        3.6525239341   -0.2904090779   -0.6549309504
C        5.0866747383    0.4476317605    1.1764319404
C        2.4539807443   -1.0677588776   -1.1180386673
C        1.8050184765   -2.1072255640   -0.2143817173
N        3.9590273528   -0.2004021131    0.7265955287
O        5.2907282109    0.4900235824    2.3764771951
O        1.9254363648   -0.7978429940   -2.1860423422
H        6.4126428129    1.3973827596   -1.8453453801
H        4.3265331979    0.1710915221   -2.6165391320
H        6.8809016820    1.5501894068    0.6079650045
H        1.3494162410   -1.6188058053    0.6505070667
H        2.5580537465   -2.8239272097    0.1242844597
H        1.0303003316   -2.6468502752   -0.7667140548
H        3.3702190298   -0.5753653913    1.4599170876
17   

C        5.7064442958    1.0085747550   -1.1238497774
C        4.5285726370    0.2636271177   -1.5683312255
C        5.9958735315    1.0510681875    0.2175170182
C        3.7054487251   -0.3787117590   -0.6805186374
C        5.1331544641    0.3615406709    1.1559075705
C        2.5197847827   -1.1718559100   -1.1493680730
C        1.7724345356   -2.0967396008   -0.1978986521
N        4.0325722192   -0.3264344138    0.6985322061
O        5.3569389393    0.3659106558    2.3531715383
O        2.1089247694   -1.0374983989   -2.2928067971
H        6.3399250716    1.5169539822   -1.8436220274
H        4.3057422823    0.2228844017   -2.6305640821
H        6.8531176383    1.5844403766    0.6044145619
H        1.3186599682   -1.5148955641    0.6083697025
H        2.4633360259   -2.8318309874    0.2233885122
H        0.9830741021   -2.6263577129   -0.7391327926
H        3.4854676695   -0.7712825704    1.4250078869
17   

C        5.6717649055    1.0639864306   -1.1340211334
C        4.5259456542    0.2763829557   -1.5887287339
C        5.9832873586    1.0694216703    0.2030780495
C        3.7611081864   -0.4517666124   -0.7150190569
C        5.1749336162    0.2996590975    1.1273706529
C        2.5868448279   -1.2571693550   -1.1917704492
C        1.7421251654   -2.0633407901   -0.2139979981
N        4.1046681662   -0.4287656678    0.6608389586
O        5.4152205377    0.2758480605    2.3212037449
O        2.2979993940   -1.2712463204   -2.3796747577
H        6.2640299679    1.6334470863   -1.8430738873
H        4.2820112727    0.2740342807   -2.6470953513
H        6.8181044662    1.6324843335    0.5968807268
H        1.2978122297   -1.3974599954    0.5303598873
H        2.3637013855   -2.8108476549    0.2857619681
H        0.9393023729   -2.5756190755   -0.7521262179
H        3.5985480250   -0.9344684933    1.3771263758
17   

C        5.6035939802    1.1129432415   -1.1464402775
C        4.4926711631    0.2748161843   -1.5973546048
C        5.9446356125    1.1015068603    0.1834727787
C        3.7972412227   -0.5256767852   -0.7290774165
C        5.2011303003    0.2646468340    1.1040702519
C        2.6353004122   -1.3529533395   -1.1978756225
C        1.7017031202   -2.0246990674   -0.1997272891
N        4.1637427471   -0.5118804898    0.6408256515
O        5.4643027545    0.2302088573    2.2928092961
O        2.4609359928   -1.5396935368   -2.3933267147
H        6.1466295497    1.7332625234   -1.8522254826
H        4.2178831847    0.2916958516   -2.6480086254
H        6.7552441453    1.7006940155    0.5745318857
H        1.2752442871   -1.2746683645    0.4716686477
H        2.2512311252   -2.7687200431    0.3824911281
H        0.8866862385   -2.5236798686   -0.7319672678
H        3.7063754662   -1.0678459513    1.3526545171
17   

C        6.2644894765   -0.1042231379   -0.0279920446
C        5.2016605974   -1.0996667743   -0.1668776868
C        5.9214606143    1.2223473414    0.0596824501
C        3.8791654531   -0.7420714901   -0.1881625351
C        4.5236385540    1.6030095546    0.0135237137
C        2.8031174041   -1.7669852026   -0.4035259428
C        1.4464920665   -1.3632218788   -0.9646247820
N        3.5528750423    0.6358237751   -0.1132172242
O        4.1758433245    2.7688195523    0.0724084878
O        2.9716906851   -2.9186865758   -0.0316716827
H        7.3052108285   -0.4104757522    0.0024432505
H        5.4708678344   -2.1483193705   -0.2532051503
H        6.6629118746    2.0027454288    0.1610587108
H        1.5820203733   -0.8222151782   -1.9050310577
H        0.9199208965   -0.7270646725   -0.2489555937
H        0.8441435340   -2.2557896091   -1.1568606326
H        2.6051056922    0.9917482618   -0.1233237069
17   

C        6.2551883168   -0.1199157160   -0.0963945934
C        5.1842672215   -1.1105400017   -0.2042676826
C        5.9198786149    1.2009971759    0.0709465530
C        3.8645757574   -0.7562803635   -0.1116008681
C        4.5223784216    1.5801256153    0.1382364166
C        2.7738708443   -1.7682767120   -0.3256359304
C        1.4892505967   -1.3757431460   -1.0415055552
N        3.5447774374    0.6165220968    0.0395959866
O        4.1805887383    2.7423309363    0.2647192591
O        2.8478610604   -2.8717291498    0.1917436240
H        7.2953594905   -0.4245484579   -0.1517476371
H        5.4428092227   -2.1538229916   -0.3592532708
H        6.6669344750    1.9783240339    0.1529873012
H        1.7305068846   -0.8709946146   -1.9809576121
H        0.8980687265   -0.7076976306   -0.4105406101
H        0.9008032303   -2.2703412044   -1.2646453811
H        2.5985427429    0.9680622501    0.1188634453
17   

C        6.2271980228   -0.1397380540   -0.1863175343
C        5.1392162191   -1.1153863634   -0.2540694984
C        5.9211997123    1.1758740616    0.0597273261
C        3.8350699803   -0.7546262144   -0.0481453543
C        4.5373848996    1.5636860696    0.2483770071
C        2.7100581202   -1.7427273109   -0.2256238851
C        1.5051188882   -1.3791896763   -1.0817517388
N        3.5442546724    0.6133132999    0.1825473024
O        4.2201031150    2.7225218059    0.4483425107
O        2.6670714108   -2.7597157670    0.4460183003
H        7.2567410194   -0.4506053607   -0.3319886841
H        5.3726750305   -2.1534449909   -0.4701829819
H        6.6812588667    1.9427248680    0.1173238145
H        1.8284884559   -1.2099196383   -2.1123412243
H        1.0281712370   -0.4733533536   -0.7005165240
H        0.7784667905   -2.1965923521   -1.0697040883
H        2.6121559091    0.9655000098    0.3630154466
17   

C        6.1993615177   -0.1562276935   -0.3355774475
C        5.0916882610   -1.1108512265   -0.3862459378
C        5.9373605282    1.1422492167    0.0248656966
C        3.8129150645   -0.7479914620   -0.0658629252
C        4.5795712941    1.5326379971    0.3476254142
C        2.6433006371   -1.7024542371   -0.1830686826
C        1.5244200415   -1.4084189827   -1.1718120141
N        3.5673385872    0.6023772738    0.2871119823
O        4.3010083596    2.6768715267    0.6586388704
O        2.4842602734   -2.5917580194    0.6338754262
H        7.2094092114   -0.4691219854   -0.5799105781
H        5.2922983448   -2.1360164108   -0.6810435455
H        6.7134601993    1.8931261513    0.0788899940
H        1.8052991969   -1.7884414712   -2.1575791955
H        1.3508052245   -0.3320188075   -1.2434881180
H        0.6013040726   -1.8987153799   -0.8504083177
H        2.6613479692    0.9442016770    0.5844565620
17   

C        6.1505321312   -0.1306890715   -0.4541669214
C        5.0176085293   -1.0558283334   -0.4961741938
C        5.9450230421    1.1462406322    0.0061579919
C        3.7670383238   -0.6799469887   -0.0927472970
C        4.6205506769    1.5437524014    0.4400128988
C        2.5672923993   -1.6092903455   -0.1280453662
C        1.6379928934   -1.6013931270   -1.3310624802
N        3.5815814744    0.6437207611    0.3754547049
O        4.3955054182    2.6674264071    0.8528607520
O        2.3018030336   -2.3047498404    0.8352369586
H        7.1361310128   -0.4490442138   -0.7782303085
H        5.1789535837   -2.0690452038   -0.8496316075
H        6.7426513638    1.8739935478    0.0628763512
H        2.1131030947   -2.1283285437   -2.1625343191
H        1.4295025802   -0.5717739530   -1.6330835510
H        0.6967075550   -2.0989328068   -1.0812942048
H        2.7075075934    0.9741797522    0.7672102322
17   

C        6.0826829005   -0.0508618888   -0.5993146722
C        4.9153904775   -0.9320337403   -0.6467508212
C        5.9505773811    1.1924471398   -0.0324692420
C        3.6942522182   -0.5328527904   -0.1762688428
C        4.6677699134    1.5992421677    0.5057264757
C        2.4901168763   -1.4522332948   -0.1241555236
C        1.9089063112   -2.0243903903   -1.4082993293
N        3.5905506892    0.7472965229    0.4194134779
O        4.5156381701    2.6861055808    1.0344122784
O        2.1296882091   -1.9088465759    0.9467050932
H        7.0384870087   -0.3774236586   -0.9962386517
H        5.0321970156   -1.9311993924   -1.0530373263
H        6.7781613138    1.8845693062    0.0389310654
H        2.7072194088   -2.2406172360   -2.1223336388
H        1.2232798777   -1.2970746432   -1.8508498438
H        1.3617866506   -2.9465646542   -1.1937487486
H        2.7573642551    1.0579854908    0.9058758703
17   

C        6.0143733900   -0.0054810304   -0.7129576303
C        4.8362524857   -0.8712264875   -0.7783134840
C        5.9139656419    1.2026341391   -0.0690560938
C        3.6299478674   -0.4837633315   -0.2568374593
C        4.6522769829    1.5905397800    0.5290756825
C        2.4285075552   -1.3949924198   -0.1932650926
C        1.9841958146   -2.1892645418   -1.4142717899
N        3.5608832671    0.7603198310    0.4154401494
O        4.5334360068    2.6398687308    1.1363547119
O        1.9368128236   -1.6581980057    0.8929816472
H        6.9553301527   -0.3179288891   -1.1542560787
H        4.9422188184   -1.8489454976   -1.2352004702
H        6.7523724831    1.8792479824    0.0219202546
H        2.8463049242   -2.5246022186   -1.9945409924
H        1.3551392996   -1.5570704573   -2.0464182517
H        1.4074061017   -3.0637898435   -1.1005239867
H        2.7471012101    1.0383827640    0.9527790433
17   

C        5.9791588009    0.0342073632   -0.7646948145
C        4.7850138696   -0.8075839255   -0.8528403173
C        5.9159862610    1.2019947155   -0.0465034432
C        3.5972790777   -0.4367718741   -0.2765392429
C        4.6763331702    1.5727670158    0.6050442986
C        2.3735758340   -1.3102375635   -0.2338681400
C        2.0154665990   -2.2297492194   -1.3938686264
N        3.5689636067    0.7679266636    0.4674664824
O        4.5918145384    2.5839351732    1.2791680113
O        1.7457838108   -1.4009038984    0.8119685009
H        6.9033149082   -0.2647253178   -1.2487925880
H        4.8666295684   -1.7521119607   -1.3784044243
H        6.7677879189    1.8587244282    0.0637178223
H        2.8727277094   -2.8433963989   -1.6782943907
H        1.6998475265   -1.6286090346   -2.2506713631
H        1.1934797906   -2.8903638639   -1.1037073655
H        2.7675882925    1.0243969787    1.0343470205
17   

C        5.9499567321    0.0844070969   -0.8294532305
C        4.7376686839   -0.7309315204   -0.9200157073
C        5.9380432272    1.2053967766   -0.0377412137
C        3.5838576038   -0.3849710869   -0.2639081742
C        4.7330539192    1.5548417859    0.6865138966
C        2.3375478922   -1.2189739994   -0.2410791133
C        2.0357369796   -2.2241811870   -1.3435116918
N        3.6085559294    0.7740424980    0.5497913584
O        4.6938613710    2.5264984328    1.4202891205
O        1.6022919691   -1.1609443702    0.7366537706
H        6.8471152446   -0.1965435993   -1.3716259681
H        4.7743064504   -1.6345726813   -1.5181875679
H        6.8050063124    1.8414091786    0.0757317507
H        2.7823675990   -3.0220427121   -1.3370901194
H        2.0471960905   -1.7211291668   -2.3140262664
H        1.0466719874   -2.6633167569   -1.1847800695
H        2.8230910354    1.0180329928    1.1445035795
17   

C        5.9212322059    0.1140399111   -0.8346675259
C        4.7104396486   -0.6967258578   -0.9751631210
C        5.9199555582    1.1611797593    0.0524146304
C        3.5717258454   -0.4260322904   -0.2598670717
C        4.7271206076    1.4398135090    0.8254663987
C        2.3128572554   -1.2359473146   -0.3117005409
C        2.0900726256   -2.2944066617   -1.3828249763
N        3.6071219107    0.6609329630    0.6478304401
O        4.6944958577    2.3502306742    1.6342767293
O        1.4661278265   -1.0745732063    0.5597979753
H        6.8082198018   -0.1111375172   -1.4180461224
H        4.7358950375   -1.5335027513   -1.6642956244
H        6.7853649921    1.7915352035    0.2031991331
H        2.8215512604   -3.0984320644   -1.2688234534
H        2.1921301280   -1.8449905638   -2.3740676217
H        1.0845173059   -2.7139051493   -1.2869589533
H        2.8150522875    0.8701797778    1.2474808338
17   

C        5.9368577882    0.0968570973   -0.8680474403
C        4.7048948049   -0.6775506742   -1.0288789046
C        5.9794921515    1.0878036773    0.0804130416
C        3.5948888381   -0.4396215293   -0.2587513919
C        4.8110672806    1.3443256533    0.8970160216
C        2.2999404417   -1.1843748567   -0.3600517874
C        2.1025296900   -2.3101209312   -1.3656463121
N        3.6753593903    0.5908654984    0.7100470728
O        4.8120256024    2.2155218541    1.7485600709
O        1.3782794544   -0.8762857794    0.3874910119
H        6.8036265962   -0.1080673702   -1.4881276340
H        4.6894800279   -1.4564336914   -1.7830817286
H        6.8606222982    1.6923885777    0.2450442078
H        2.8228674470   -3.1094856268   -1.1735878031
H        2.2407339212   -1.9291310915   -2.3807817342
H        1.0909857472   -2.7161766206   -1.2749251736
H        2.8848857676    0.8109929978    1.3080684689
