21   

C        0.9865605833   -5.3994730745   -1.6626384087
C        0.6619174446   -4.1891547301   -0.9517127152
C        1.7445230986   -5.0189876033   -2.7333732391
C        1.2475867850   -3.1610821226   -1.6450271024
C       -0.6445797005   -0.6643203805    1.3212216104
C        0.5962538784   -1.1149995879   -0.3966658245
C        0.3720731225    0.3576408570   -0.3744605362
C        1.2538846687   -1.7559778712   -1.4015432342
C       -1.0319674961    1.8329469981    1.0956976719
N       -0.0845542548   -1.6692353411    0.6822886775
N       -0.3759824181    0.5845804659    0.7505335188
O        0.7400776134    1.2034563804   -1.1799470818
O        1.9147954013   -3.6577679721   -2.7398977622
H        0.6928509830   -6.4106392088   -1.4062731413
H        0.0715421288   -4.1065058729   -0.0468983954
H        2.1555279902   -5.6933041432   -3.4758662370
H       -1.2589323582   -0.7983134125    2.2049334684
H        1.7610967664   -1.1435159945   -2.1374509616
H       -0.6386629379    2.2144815014    2.0431885035
H       -2.1127470111    1.6846005531    1.1840584154
H       -0.8543085158    2.5866429260    0.3213879443
21   

C        0.8551288900   -5.3668875532   -1.6849423909
C        0.6470367262   -4.1632761140   -0.9208012965
C        1.6249567008   -5.0087821965   -2.7550913508
C        1.3064519106   -3.1616079288   -1.5854559118
C       -0.4772151543   -0.6622790028    1.4172316807
C        0.8021873572   -1.1112425212   -0.2722271065
C        0.4293068800    0.3303956923   -0.3545583956
C        1.4309071601   -1.7736747619   -1.2847011590
C       -1.1391174328    1.7477266712    0.9968558698
N        0.1749350111   -1.6517192771    0.8449984068
N       -0.3295091125    0.5654505640    0.7618366368
O        0.6905896688    1.1416012109   -1.2339462777
O        1.9108434455   -3.6677575655   -2.7118763077
H        0.4804140152   -6.3591772392   -1.4626824930
H        0.0817544940   -4.0664472547   -0.0014327112
H        1.9642396735   -5.6846419516   -3.5316439460
H       -1.0784144098   -0.7939762164    2.3102913326
H        1.9385745824   -1.1745040184   -2.0310943030
H       -0.8010017308    2.2599604858    1.9030633044
H       -2.1931210515    1.4738043293    1.1063453953
H       -1.0547749237    2.4445474188    0.1563151071
21   

C        0.7111771310   -5.2830282927   -1.6967733058
C        0.6172768473   -4.0950572776   -0.8867618110
C        1.5099377275   -4.9579237986   -2.7564587940
C        1.3663218904   -3.1354582557   -1.5167937143
C       -0.3222466238   -0.6489370178    1.5066818592
C        1.0058002891   -1.0853992945   -0.1486029560
C        0.4940349058    0.3063717656   -0.3267242887
C        1.6121981255   -1.7785435713   -1.1590769205
C       -1.2251846772    1.6418301448    0.9160723477
N        0.4204586358   -1.6091882753    0.9986254106
N       -0.2850301308    0.5439689450    0.7752669751
O        0.6651257439    1.0708103739   -1.2679812358
O        1.9203255364   -3.6521809615   -2.6639125108
H        0.2457466865   -6.2438555992   -1.5106526772
H        0.0658577000   -3.9789617690    0.0388501134
H        1.7833207804   -5.6322586131   -3.5598772308
H       -0.9159185101   -0.7796353502    2.4049135426
H        2.1401738704   -1.1988192604   -1.9066013428
H       -0.9538465848    2.2597453037    1.7777025584
H       -2.2422927428    1.2600775889    1.0492470117
H       -1.2145808100    2.2744985619    0.0223042454
21   

C        0.5145214828   -5.1778547775   -1.6693330110
C        0.5032107160   -3.9971101192   -0.8433400505
C        1.3614465975   -4.9073703199   -2.7071147104
C        1.3441150094   -3.0970365077   -1.4433762583
C       -0.3142686183   -0.5958496137    1.5340253670
C        1.0756868698   -1.0277041158   -0.0717171257
C        0.4170229356    0.2822662609   -0.3704041882
C        1.6839460228   -1.7716044945   -1.0516367383
C       -1.4575344948    1.5168177088    0.7391417992
N        0.5274113628   -1.5141143775    1.1094615393
N       -0.3899862320    0.5324464649    0.7085481818
O        0.5033794445    0.9694775293   -1.3802433458
O        1.8793851736   -3.6428554386   -2.5855802051
H       -0.0345162659   -6.0982340950   -1.5083197367
H       -0.0551838287   -3.8445230542    0.0728484940
H        1.5940159902   -5.5911260399   -3.5154125510
H       -0.9043720891   -0.7147546762    2.4362452533
H        2.2502647843   -1.2256855411   -1.7962982555
H       -1.2137320921    2.3113448562    1.4512820974
H       -2.4029434786    1.0484598242    1.0304528811
H       -1.5945931262    1.9673388955   -0.2495551358
21   

C        0.3681776258   -5.0439086221   -1.6806046955
C        0.4456226770   -3.8826127967   -0.8306927794
C        1.2731304216   -4.8410168171   -2.6847564309
C        1.3912458149   -3.0616969828   -1.3850152902
C       -0.1907165050   -0.5617676778    1.5847935990
C        1.2376625466   -0.9847000124    0.0090996324
C        0.4558159913    0.2319351040   -0.3854946546
C        1.8321126564   -1.7846952275   -0.9451805925
C       -1.5227604182    1.3709887661    0.6416834085
N        0.7296216409   -1.4303959330    1.2237674598
N       -0.3681858360    0.4904402402    0.6785284311
O        0.4675181603    0.8366381167   -1.4501842384
O        1.9106166447   -3.6375212209   -2.5193725289
H       -0.2749388938   -5.9074883944   -1.5576960520
H       -0.1239394059   -3.6881915514    0.0706794895
H        1.4635059638   -5.5295126191   -3.5000427778
H       -0.7687896618   -0.6665470689    2.4965079273
H        2.4612081555   -1.2812637507   -1.6687182728
H       -1.3545147742    2.2358747747    1.2909266026
H       -2.4208854243    0.8402543358    0.9728773369
H       -1.7001927310    1.7316092765   -0.3770167019
21   

C        0.2155440262   -4.8806961908   -1.7079953352
C        0.3643659638   -3.7391070252   -0.8408726559
C        1.1964538359   -4.7700942321   -2.6540109978
C        1.4236587846   -3.0222743123   -1.3284251283
C       -0.0780365985   -0.5114655533    1.6343911171
C        1.3705463739   -0.9368443984    0.0757612392
C        0.4795648465    0.1738478845   -0.4017708267
C        1.9564145187   -1.8024124756   -0.8388931430
C       -1.5796816126    1.2192260598    0.5635261382
N        0.9082278475   -1.3267502417    1.3271670637
N       -0.3522100009    0.4475516049    0.6522785387
O        0.4205944248    0.6828829969   -1.5137958421
O        1.9489555976   -3.6440197844   -2.4350051196
H       -0.5224321078   -5.6709986124   -1.6352361225
H       -0.2327014102   -3.4878309733    0.0280578164
H        1.3603822267   -5.4693152820   -3.4659020350
H       -0.6374358263   -0.5926581453    2.5600607605
H        2.6842992003   -1.3636148694   -1.5093336662
H       -1.4837674814    2.1426276654    1.1431545870
H       -2.4260307561    0.6395935758    0.9452096074
H       -1.7942061819    1.4843529420   -0.4771438028
21   

C        1.4874555591   -4.8676570610   -0.8800950111
C        0.6133486396   -3.7315551036   -0.7301149110
C        2.0525064471   -4.7516789322   -2.1196964648
C        0.7162964637   -3.0122420054   -1.8901488739
C       -1.5920719074   -0.5230896834    0.5169934546
C       -0.6030344879   -0.9354071219   -1.3703107843
C        0.1360089879    0.1789943531   -0.6868959029
C        0.0701854652   -1.7958744620   -2.2280776442
C       -0.0971770947    1.2192764155    1.5789837764
N       -1.6261738799   -1.3347526354   -0.5182875087
N       -0.5805257297    0.4419499802    0.4511437477
O        1.1997671636    0.6970691956   -1.0018646035
O        1.5888102148   -3.6273739623   -2.7546591756
H        1.6691451383   -5.6580335368   -0.1612250056
H       -0.0089013417   -3.4854384315    0.1224603446
H        2.7677898953   -5.4459253810   -2.5455392410
H       -2.2777836861   -0.6111845389    1.3527082783
H        0.4575517024   -1.3535247819   -3.1369904414
H       -0.0687403479    0.6047745693    2.4842553171
H       -0.7497874659    2.0816970664    1.7466981580
H        0.9163192553    1.5872828880    1.3875258726
21   

C        1.4116778078   -5.0283783950   -1.0102476799
C        0.5754114584   -3.8732695544   -0.8020970956
C        2.0590831347   -4.8201866332   -2.1959603216
C        0.7801961687   -3.0503278531   -1.8773973169
C       -1.5105539858   -0.5710512756    0.6018833131
C       -0.4997111440   -0.9820044112   -1.2722678490
C        0.1227949196    0.2391478024   -0.6657930227
C        0.2101529669   -1.7775071887   -2.1482907439
C       -0.1912616459    1.3693611236    1.5467480333
N       -1.4719550168   -1.4365164965   -0.3887151484
N       -0.6041031578    0.4873328595    0.4691098330
O        1.1171759320    0.8524341937   -1.0324964009
O        1.6835429272   -3.6192054909   -2.7425324168
H        1.5143488950   -5.8915615587   -0.3630624944
H       -0.0887396545   -3.6842838681    0.0332671750
H        2.7707975112   -5.5032591576   -2.6452193933
H       -2.1759133826   -0.6825689687    1.4511339018
H        0.6809693664   -1.2710141921   -2.9816673659
H       -0.0846100294    0.8091849468    2.4809940971
H       -0.9301026012    2.1650868346    1.6835762856
H        0.7742390512    1.8324140829    1.3173434706
21   

C        1.3525183888   -5.1656558300   -1.1483504922
C        0.5696465981   -3.9900545553   -0.8626265108
C        2.0495560677   -4.8894410538   -2.2908189363
C        0.8517395550   -3.0869288566   -1.8536782967
C       -1.4183187456   -0.6058059591    0.7031941604
C       -0.3656152898   -1.0257486745   -1.1444385405
C        0.1265429533    0.2864747633   -0.6203466616
C        0.3619542210   -1.7641407228   -2.0437778789
C       -0.3043736053    1.5143625196    1.5200573637
N       -1.2937421295   -1.5201443440   -0.2350673167
N       -0.6207336830    0.5270657219    0.5028778614
O        1.0445544235    0.9809595913   -1.0380140267
O        1.7555474326   -3.6261642750   -2.7376806463
H        1.3880846005   -6.0865670039   -0.5781537355
H       -0.1107910162   -3.8428757468   -0.0320839902
H        2.7394182335   -5.5683359974   -2.7788224126
H       -2.0715330836   -0.7308479934    1.5599511734
H        0.8734854507   -1.2144633768   -2.8244551875
H       -0.1549464537    1.0304716705    2.4903761360
H       -1.1165686819    2.2435789682    1.6000014403
H        0.6155228087    2.0503706272    1.2637032877
21   

C        1.2991121988   -5.2837036198   -1.2874702093
C        0.5810652469   -4.0906894778   -0.9169104381
C        2.0318980837   -4.9577172446   -2.3935540980
C        0.9329913072   -3.1275586062   -1.8264823296
C       -1.3188123300   -0.6362751757    0.8010632404
C       -0.2117997234   -1.0708853665   -1.0099081261
C        0.1433734913    0.3136965119   -0.5769861681
C        0.5281145290   -1.7653216447   -1.9262473973
C       -0.4319165795    1.6386167235    1.4713762647
N       -1.1007275455   -1.5922607587   -0.0766403379
N       -0.6300515871    0.5515969379    0.5289173638
O        0.9808083644    1.0725382636   -1.0486497081
O        1.8211281684   -3.6467334660   -2.7383238793
H        1.2697803916   -6.2482780797   -0.7943260213
H       -0.1038084037   -3.9736719146   -0.0853064730
H        2.6890461778   -5.6350712072   -2.9267454035
H       -1.9660516526   -0.7667227911    1.6615365671
H        1.0607298459   -1.1854158224   -2.6703323298
H       -0.2400158535    1.2453548801    2.4746210731
H       -1.3188867670    2.2793213841    1.4965973615
H        0.4269586797    2.2510880139    1.1773973705
21   

C        1.2380428719   -5.3675486214   -1.4163324997
C        0.6019240624   -4.1602254274   -0.9541370920
C        1.9900076101   -5.0097925743   -2.4992244692
C        1.0163809081   -3.1569433341   -1.7917405895
C       -1.1828602268   -0.6526102129    0.9170211334
C       -0.0276395550   -1.1017953994   -0.8594618085
C        0.1912724025    0.3351383300   -0.5257167381
C        0.7064479559   -1.7654612311   -1.7974803978
C       -0.5346251581    1.7454276966    1.4177326218
N       -0.8741483174   -1.6398984385    0.1035804681
N       -0.6029287369    0.5717177056    0.5655028165
O        0.9408202320    1.1418076675   -1.0615461702
O        1.8676344286   -3.6655436743   -2.7441003516
H        1.1442368480   -6.3619437686   -0.9958215448
H       -0.0720521932   -4.0621093020   -0.1113508621
H        2.5993627672   -5.6881260708   -3.0852985129
H       -1.8224667239   -0.7835863124    1.7830993155
H        1.2446266944   -1.1668492591   -2.5226439664
H       -0.3141634060    1.4562444628    2.4500688339
H       -1.4855035331    2.2865891034    1.3877212039
H        0.2572380952    2.4213711556    1.0782693407
21   

C        1.1766399626   -5.4045826298   -1.5226104441
C        0.6277900828   -4.1929844686   -0.9690138044
C        1.9336876512   -5.0234872076   -2.5937819972
C        1.0934483572   -3.1636478955   -1.7463287572
C       -1.0410784148   -0.6662985120    1.0502952632
C        0.1563502290   -1.1150645550   -0.6984757139
C        0.2236640411    0.3550584044   -0.4688024552
C        0.8749749127   -1.7572185426   -1.6600501781
C       -0.6656326976    1.8223717177    1.3643229103
N       -0.6357188427   -1.6695224769    0.3014063080
N       -0.5849580368    0.5822881050    0.6135167991
O        0.8683165877    1.1991870614   -1.0783163293
O        1.8954407949   -3.6607032257   -2.7464996602
H        1.0243741015   -6.4169538416   -1.1671309784
H       -0.0250385568   -4.1103170971   -0.1081711347
H        2.4883080578   -5.6984648680   -3.2354396340
H       -1.6672317826   -0.8013775741    1.9255217047
H        1.4031512763   -1.1447527165   -2.3810492388
H       -0.4231752400    1.6479168048    2.4172641635
H       -1.6736075050    2.2421934879    1.2885474130
H        0.0441915446    2.5569204890    0.9696625205
21   

C        1.0841382452   -5.4207244238   -1.6015061443
C        0.6438720248   -4.2067347091   -0.9627727884
C        1.8393162384   -5.0340026826   -2.6719138901
C        1.1653278767   -3.1702927764   -1.6940472391
C       -0.8619015430   -0.6730894638    1.1899389981
C        0.3671646459   -1.1233858263   -0.5374079831
C        0.2901810185    0.3585149198   -0.4129051289
C        1.0559224634   -1.7584923616   -1.5241054217
C       -0.7862256947    1.8642640925    1.2893856872
N       -0.3686606738   -1.6815822668    0.5033104952
N       -0.5203038512    0.5791673392    0.6688417744
O        0.8211933608    1.2179736351   -1.1049629617
O        1.9006279385   -3.6654845243   -2.7451613697
H        0.8648253959   -6.4382703904   -1.2999322302
H        0.0227834570   -4.1276727758   -0.0784538603
H        2.3237510193   -5.7090560788   -3.3680068289
H       -1.4748283601   -0.8065309613    2.0747159807
H        1.5715963579   -1.1424756934   -2.2511290167
H       -0.5300795808    1.8341401407    2.3530237229
H       -1.8434001309    2.1247238349    1.1769581074
H       -0.1858804842    2.6490727884    0.8173204049
