21   
Generated by ForceBalance from scan.xyz: Frame 1 of 24
C        1.8350679142   -1.2741100517    3.2510681476
C       -0.5600977064   -0.9856266331    1.9930443570
C        0.5397732191   -0.2713039308    1.5053750166
C        1.7838747597   -0.3712274817    2.1875565293
C        0.6788567729   -1.9670231893    3.6269779568
C        2.9867085219    1.5007219103    1.1581874956
C       -0.4009858085   -3.5045694899    5.0891402155
N       -0.5116760371   -1.8192719543    3.0287527882
N        0.3450212820    0.3860501105    0.2224950309
O        1.2367085781    0.2539053742   -0.6293030670
O       -0.7236570354    0.9802142266    0.0313660089
O        2.9185737076    0.3207520130    1.9784564394
O        0.7902945910   -2.8116986494    4.6701704377
H        2.7539808007   -1.3875634097    3.8146095210
H       -1.5108719115   -0.8880937027    1.4748313170
H        3.8482520387    2.0522948452    1.5367017076
H        2.0863672398    2.1120053998    1.2727552898
H        3.1282990148    1.2367739685    0.1111644823
H       -0.0858635668   -4.1201312537    5.9317976591
H       -0.7899326022   -4.1286336305    4.2811077173
H       -1.1726654661   -2.7955203644    5.3983612288
21   
Generated by ForceBalance from scan.xyz: Frame 2 of 24
C        1.8515289967   -1.3190308448    3.2000748580
C       -0.5582480000   -0.9873299374    1.9738517369
C        0.5525878646   -0.3117796952    1.4582909268
C        1.8071215159   -0.4449751760    2.1149381675
C        0.6815155381   -1.9739066337    3.6062141890
C        2.9702510326    1.5066452584    1.2390785767
C       -0.4182834140   -3.4471768363    5.1187136214
N       -0.5130104045   -1.8060150915    3.0225328417
N        0.3640247848    0.3575517277    0.1816513138
O        1.2852313467    0.2873500326   -0.6450267837
O       -0.7239644978    0.9099610956   -0.0282899876
O        2.9582599717    0.1939227167    1.8328305538
O        0.7854001536   -2.7978515055    4.6658152211
H        2.7769505222   -1.4491325134    3.7491762399
H       -1.5154604687   -0.8709134422    1.4722420699
H        3.8322127103    2.0117140338    1.6782116650
H        2.0591626366    2.0587285421    1.4889969567
H        3.0772040597    1.4346496480    0.1573677146
H       -0.1073747336   -4.0513767942    5.9710477968
H       -0.8363098226   -4.0786417819    4.3312827776
H       -1.1650443542   -2.7094865614    5.4218883694
21   
Generated by ForceBalance from scan.xyz: Frame 3 of 24
C        1.8751320530   -1.3228262610    3.1238695916
C       -0.5596567326   -1.0223086271    1.9345898410
C        0.5399294374   -0.3580414387    1.3832494689
C        1.8104415195   -0.4911995542    2.0097376159
C        0.7114230029   -1.9672429353    3.5700343099
C        2.9456156736    1.5244932185    1.3044123937
C       -0.3610964992   -3.3928053760    5.1462125053
N       -0.4916534135   -1.8171460545    3.0017156536
N        0.3264827723    0.3325575285    0.1214387183
O        1.2733253087    0.3896001473   -0.6754415863
O       -0.8034421312    0.7875902531   -0.1035242988
O        2.9552624751    0.1230640378    1.6483260288
O        0.8342547743   -2.7573716981    4.6521036735
H        2.8130558191   -1.4437966047    3.6534938362
H       -1.5282125020   -0.9143258110    1.4542844642
H        3.8233145726    1.9555585484    1.7901742521
H        2.0428687052    2.0142768115    1.6813566169
H        3.0078762317    1.6436719753    0.2228754562
H       -0.0346915053   -3.9702911507    6.0110997486
H       -0.7921618609   -4.0480114507    4.3857670426
H       -1.1026341925   -2.6458699290    5.4392303041
21   
Generated by ForceBalance from scan.xyz: Frame 4 of 24
C        1.7973711280   -1.3331750051    3.1214308212
C       -0.6320411346   -1.1069219021    1.9071861296
C        0.4614635164   -0.4471896918    1.3395617376
C        1.7310167456   -0.5505225502    1.9754489836
C        0.6361169988   -1.9716210230    3.5894706954
C        2.9091302212    1.4772771890    1.4892228677
C       -0.4274207080   -3.3554679010    5.2075226191
N       -0.5617032771   -1.8598388748    3.0058033607
N        0.2382375016    0.2272938302    0.0683345205
O        1.2064512797    0.3893577313   -0.6856956290
O       -0.9198876517    0.5750990330   -0.2014846031
O        2.8809434549    0.0375073408    1.5662216878
O        0.7616421965   -2.7162940954    4.7017245532
H        2.7370160317   -1.4337563496    3.6523921002
H       -1.5995103819   -1.0282443896    1.4200545865
H        3.9594680469    1.7370828391    1.3549485061
H        2.5392648411    1.9087911816    2.4257268730
H        2.3318513177    1.8448338810    0.6393892600
H       -0.0996828813   -3.8941790460    6.0964828386
H       -0.8377734627   -4.0460265184    4.4672286505
H       -1.1852694463   -2.6117750126    5.4645508996
21   
Generated by ForceBalance from scan.xyz: Frame 5 of 24
C        1.8144582216   -1.2505350523    3.0539320141
C       -0.6140522123   -1.1130649644    1.8266332667
C        0.4624036840   -0.4341736045    1.2475740054
C        1.7305921075   -0.4884661222    1.8962105541
C        0.6632128668   -1.8904183996    3.5455606145
C        3.0383245841    1.4841169287    1.6355126798
C       -0.3703756655   -3.2691041720    5.1872058684
N       -0.5339565955   -1.8188839035    2.9560833238
N        0.2226433592    0.2321227343   -0.0277061308
O        1.1076103190    0.9610031012   -0.4919262995
O       -0.8640976954    0.0258801367   -0.5859402187
O        2.8771408154    0.0655535419    1.4250972940
O        0.8023997636   -2.6039126912    4.6759064201
H        2.7633361685   -1.3464736147    3.5694233010
H       -1.5804863259   -1.0757035707    1.3339980341
H        3.9801857816    1.7460489920    1.1531156728
H        3.0986805124    1.6918059364    2.7103096168
H        2.2233971636    2.0465408073    1.1779322854
H       -0.0331803345   -3.7768605421    6.0906872551
H       -0.7521109091   -3.9889067085    4.4595695754
H       -1.1533386679   -2.5441172090    5.4209462174
21   
Generated by ForceBalance from scan.xyz: Frame 6 of 24
C        1.8510331631   -1.1733112843    2.9658141533
C       -0.5809317753   -1.1752809182    1.7228789558
C        0.4692048467   -0.4654036836    1.1411555740
C        1.7366070825   -0.4627590158    1.7794765209
C        0.7184874047   -1.8342300100    3.4774839937
C        3.1304526488    1.4528550566    1.6481486487
C       -0.2642236060   -3.2055382930    5.1560930178
N       -0.4747032074   -1.8388406922    2.8772209116
N        0.2074941118    0.2367976374   -0.1085951110
O        0.8871153021    1.2359239409   -0.3720984489
O       -0.7023498028   -0.1998417308   -0.8259797267
O        2.8429755237    0.1028432163    1.2275591818
O        0.8798477386   -2.5001195652    4.6349074795
H        2.8049791175   -1.2386110700    3.4772645176
H       -1.5475605943   -1.1900569159    1.2274570401
H        4.0525890593    1.7300998565    1.1368444537
H        3.2816967483    1.4873414159    2.7333681183
H        2.3228048358    2.1244596863    1.3492224194
H        0.0867562884   -3.6661368643    6.0794330308
H       -0.6016545160   -3.9670073216    4.4491347183
H       -1.0848730015   -2.5132190349    5.3577021363
21   
Generated by ForceBalance from scan.xyz: Frame 7 of 24
C        1.8436148001   -1.0933609583    2.9320246673
C       -0.5801149695   -1.2383575783    1.6695709031
C        0.4421243196   -0.4945703800    1.0850997592
C        1.7057034262   -0.4319389006    1.7198226253
C        0.7348047521   -1.7880372872    3.4519116369
C        3.1986070215    1.4121624989    1.6991892785
C       -0.1985814799   -3.1589781784    5.1589829486
N       -0.4499182554   -1.8695265605    2.8405120513
N        0.1541361153    0.2336976656   -0.1442585133
O        0.7224078813    1.3174172783   -0.3209341716
O       -0.6749335552   -0.2624386761   -0.9182290099
O        2.7648591823    0.1682743754    1.1175850462
O        0.9152291214   -2.4122658272    4.6306484937
H        2.7943936831   -1.1147862132    3.4530866162
H       -1.5439733669   -1.3023868840    1.1718269111
H        4.0939313670    1.7012101208    1.1484601640
H        3.4404999825    1.2855204149    2.7602658412
H        2.4216938246    2.1715809032    1.5719641526
H        0.1634840376   -3.5762328829    6.0985633191
H       -0.4898288059   -3.9553761858    4.4701455217
H       -1.0548514833   -2.5031191891    5.3326148707
21   
Generated by ForceBalance from scan.xyz: Frame 8 of 24
C        1.8043243657   -0.9906995725    2.9223779610
C       -0.5916451648   -1.2780688831    1.6301781999
C        0.4001059883   -0.4953356017    1.0466894149
C        1.6500642430   -0.3571443302    1.6957568301
C        0.7226348083   -1.7286758676    3.4387334204
C        3.2814799445    1.3759580607    1.7640364908
C       -0.1621566289   -3.1190423756    5.1559784774
N       -0.4480980982   -1.8812516781    2.8147013426
N        0.0888054152    0.2092466719   -0.1923225437
O        0.5643627143    1.3385478345   -0.3503505548
O       -0.6720629287   -0.3561469215   -0.9890958117
O        2.6662891338    0.2802091700    1.0661170160
O        0.9187330034   -2.3235911293    4.6309244806
H        2.7429312040   -0.9632700055    3.4639296276
H       -1.5446852687   -1.3965375214    1.1215140055
H        4.0693653196    1.7400919777    1.1047691942
H        3.7185962176    1.0543738164    2.7150989491
H        2.5451925125    2.1673782112    1.9344023959
H        0.2078606938   -3.5033406456    6.1065129283
H       -0.4026717347   -3.9395135813    4.4758093984
H       -1.0535029445   -2.5060604343    5.3084935860
21   
Generated by ForceBalance from scan.xyz: Frame 9 of 24
C        1.7497241368   -0.9006425585    2.9219172701
C       -0.6013243148   -1.3236006586    1.5899915619
C        0.3607627420   -0.5026382231    1.0102044917
C        1.5875588718   -0.2837390664    1.6859289072
C        0.6959304466   -1.6829542816    3.4290863014
C        3.3622853677    1.3014557495    1.8369867100
C       -0.1499042234   -3.0919802796    5.1511022648
N       -0.4542755094   -1.9010821470    2.7871686919
N        0.0369952721    0.1487779760   -0.2552747784
O        0.4708278061    1.2878746599   -0.4522785488
O       -0.6930117021   -0.4748164460   -1.0385597639
O        2.5718523863    0.3909950156    1.0566710055
O        0.8999873050   -2.2516235759    4.6330213180
H        2.6685499737   -0.8142981127    3.4895815356
H       -1.5362963210   -1.4966615934    1.0640575491
H        3.9052572024    1.9100449766    1.1140115827
H        4.0765398591    0.7679661421    2.4736023946
H        2.7166632069    1.9382328066    2.4489588598
H        0.2219530848   -3.4452705291    6.1129202351
H       -0.3387286055   -3.9320832959    4.4786652820
H       -1.0724416443   -2.5212905029    5.2803156675
21   
Generated by ForceBalance from scan.xyz: Frame 10 of 24
C        1.7074348669   -0.7783287984    2.9318037835
C       -0.6009202247   -1.3248239941    1.5735180491
C        0.3249486035   -0.4609081134    0.9973454218
C        1.5303489007   -0.1714439498    1.6912090830
C        0.6889983284   -1.6121281683    3.4277496691
C        3.4124842144    1.2791443930    1.8907241793
C       -0.1054654788   -3.0523764454    5.1484303231
N       -0.4419021446   -1.8897665329    2.7752408889
N       -0.0146669767    0.1483450457   -0.2846457212
O        0.4054767856    1.2840988550   -0.5245105426
O       -0.7441893675   -0.5076362681   -1.0425879439
O        2.4737955389    0.5629683646    1.0767438056
O        0.9084038123   -2.1653808273    4.6361388955
H        2.6079180743   -0.6415173400    3.5175131857
H       -1.5185004266   -1.5469060288    1.0359797350
H        3.8940484398    1.9908445417    1.2205216093
H        4.1673439017    0.6058186521    2.3117584088
H        2.8965406030    1.8131529007    2.6945707287
H        0.2731385239   -3.3826008484    6.1158143941
H       -0.2472298645   -3.9038818449    4.4788346345
H       -1.0553619539   -2.5256767823    5.2653512828
21   
Generated by ForceBalance from scan.xyz: Frame 11 of 24
C        1.6579687821   -0.6890644914    2.9481174055
C       -0.6013302839   -1.3457477268    1.5597251194
C        0.2898146798   -0.4406705381    0.9921650224
C        1.4722947124   -0.0919359099    1.7030017501
C        0.6750440474   -1.5729839878    3.4286100262
C        3.4381852777    1.2413871695    1.9049027626
C       -0.0765839613   -3.0412488585    5.1444702588
N       -0.4330854790   -1.9042153140    2.7631981803
N       -0.0575757382    0.1362235004   -0.3020317680
O        0.3524419946    1.2693472153   -0.5699713026
O       -0.7794790863   -0.5445681130   -1.0460717013
O        2.3702272602    0.7109322970    1.1116944807
O        0.9047667365   -2.1136613058    4.6406503464
H        2.5361743839   -0.5074190304    3.5538091187
H       -1.4991853920   -1.6113105845    1.0091785074
H        3.9409178372    1.9647284185    1.2637571006
H        4.1436255536    0.4547492816    2.1947469863
H        3.0474849290    1.7424963304    2.7964170443
H        0.3024458543   -3.3490384322    6.1190619004
H       -0.1713989698   -3.9019044851    4.4783057115
H       -1.0501193762   -2.5559840826    5.2447774102
21   
Generated by ForceBalance from scan.xyz: Frame 12 of 24
C        1.6761366932   -0.6947711733    2.9481025727
C       -0.6551574275   -1.2123616947    1.6228889826
C        0.2731775772   -0.3630910520    1.0286694087
C        1.4904649307   -0.0788611634    1.7116642029
C        0.6720633944   -1.5490359503    3.4380129829
C        3.5560679424    1.0971325245    1.8799801081
C       -0.1090545424   -2.9887782867    5.1649731106
N       -0.4717731914   -1.8125606617    2.8036401357
N       -0.0462627753    0.1778076102   -0.2872813243
O       -1.2479816569    0.2718835648   -0.5808876367
O        0.8833913195    0.4827671717   -1.0400837672
O        2.3586074487    0.7825405022    1.1610197409
O        0.9104189025   -2.1184965971    4.6350352863
H        2.5598990134   -0.5344324050    3.5511770399
H       -1.5844009551   -1.4176433968    1.0995558800
H        4.0900091706    1.8076126504    1.2499521215
H        4.1695817383    0.2021626747    2.0284032762
H        3.3247703538    1.5588517762    2.8460525715
H        0.2842257028   -3.3314458899    6.1221215066
H       -0.2817065240   -3.8335003937    4.4941555840
H       -1.0458312062   -2.4446391668    5.3054875167
21   
Generated by ForceBalance from scan.xyz: Frame 13 of 24
C        1.6308966318   -0.6240024174    3.0029716922
C       -0.6400037403   -1.2281678889    1.6114994848
C        0.2676547367   -0.3365675048    1.0483381346
C        1.4537010731   -0.0105620448    1.7645653291
C        0.6530230821   -1.5263962290    3.4585383935
C        3.5735511779    1.0746632775    1.8580310580
C       -0.1180915415   -3.0036974003    5.1579780362
N       -0.4614989501   -1.8317395285    2.7914085215
N       -0.0330715410    0.1949989252   -0.2766940853
O       -1.2293649031    0.2627053072   -0.5971300844
O        0.9069164969    0.5148328901   -1.0102076879
O        2.2819205096    0.9165805918    1.2599988432
O        0.8818915366   -2.0938606031    4.6584061345
H        2.4878532688   -0.4230930350    3.6326023357
H       -1.5454996510   -1.4688577131    1.0621453574
H        4.1100998940    1.7629347178    1.2057941424
H        4.1006257577    0.1160904269    1.9020891391
H        3.4943033608    1.5063976088    2.8619024546
H        0.2625479459   -3.3364335578    6.1237038146
H       -0.2420079988   -3.8508260456    4.4794765792
H       -1.0776640709   -2.4950765401    5.2761883779
21   
Generated by ForceBalance from scan.xyz: Frame 14 of 24
C        1.5612121755   -0.5589659662    3.0412439319
C       -0.6448237120   -1.2614149420    1.5874043097
C        0.2356009512   -0.3239885336    1.0568656209
C        1.3837716660    0.0533569010    1.8034584733
C        0.6197510094   -1.5150626282    3.4633186293
C        3.5317152857    1.0885366368    1.7634026108
C       -0.1254306814   -3.0385235705    5.1332960726
N       -0.4627271646   -1.8665000914    2.7660785542
N       -0.0437701135    0.1965096620   -0.2776520703
O       -1.2344001969    0.2672444447   -0.6158352266
O        0.9102105496    0.4975929014   -1.0010205084
O        2.1615770766    1.0480810869    1.3419312017
O        0.8454495667   -2.0823927713    4.6639781620
H        2.3898428620   -0.3123037604    3.6932919048
H       -1.5240696652   -1.5413858131    1.0140084065
H        4.0221454906    1.7905057761    1.0893807747
H        3.9917706303    0.0997732806    1.6725800734
H        3.6196993811    1.4501213864    2.7939038345
H        0.2455421445   -3.3609108992    6.1062635483
H       -0.1953006195   -3.8856605822    4.4470943864
H       -1.1091307134   -2.5733299172    5.2305995942
21   
Generated by ForceBalance from scan.xyz: Frame 15 of 24
C        1.5007411724   -0.5089000433    3.1231059046
C       -0.6272574434   -1.2846205018    1.5891004966
C        0.2371668177   -0.3123455177    1.0960976501
C        1.3379752226    0.1051571803    1.8857633513
C        0.5847101467   -1.5055991654    3.5067296592
C        3.5049545296    1.0782900503    1.6765828000
C       -0.1604798416   -3.0678162851    5.1408785758
N       -0.4601646144   -1.8900214692    2.7697810628
N        0.0012221872    0.1986172946   -0.2507078910
O       -1.1775079278    0.2742065724   -0.6251565948
O        0.9807992106    0.4823573505   -0.9467544813
O        2.0855524607    1.1480301442    1.4691165071
O        0.7910660252   -2.0749686349    4.7099504826
H        2.2945209284   -0.2258219931    3.8040592345
H       -1.4754248737   -1.5947502761    0.9848004978
H        3.9292430442    1.8703622950    1.0597388774
H        3.8899864083    0.1071808696    1.3517199020
H        3.7660820374    1.2542974532    2.7257764604
H        0.1892911956   -3.3841843524    6.1236082188
H       -0.1779823338   -3.9119144184    4.4475921515
H       -1.1626011176   -2.6379366980    5.2083895698
21   
Generated by ForceBalance from scan.xyz: Frame 16 of 24
C        1.4628846171   -0.4561507645    3.2055432567
C       -0.5713614611   -1.3108270349    1.5867015151
C        0.2794041595   -0.3084819806    1.1303427575
C        1.3218903532    0.1562996132    1.9666826956
C        0.5696727409   -1.4866410819    3.5541846597
C        3.4859219856    1.0573332546    1.5479606944
C       -0.1843630707   -3.0766462913    5.1571364225
N       -0.4301903463   -1.9071231046    2.7750371081
N        0.1002067718    0.1868021269   -0.2301370717
O       -1.0587652764    0.2437211406   -0.6624407763
O        1.1112150199    0.4798281226   -0.8770376817
O        2.0591066390    1.2282987543    1.5884444177
O        0.7474007417   -2.0497302153    4.7646435185
H        2.2124670444   -0.1322668175    3.9183991121
H       -1.3815059682   -1.6535513183    0.9484867052
H        3.8886684031    2.0173776617    1.2252972201
H        3.7465053460    0.2825129262    0.8205230175
H        3.8898056203    0.8027069932    2.5333826524
H        0.1369788370   -3.3817761472    6.1530044668
H       -0.1438402148   -3.9197575306    4.4635799275
H       -1.2031073838   -2.6828870561    5.1845565913
21   
Generated by ForceBalance from scan.xyz: Frame 17 of 24
C        1.3889858269   -0.4267386412    3.3036774538
C       -0.5363810993   -1.3399153813    1.5866031463
C        0.3013242584   -0.3068408916    1.1738819488
C        1.2860038975    0.1863805210    2.0630556542
C        0.5137294238   -1.4871667028    3.6071977068
C        3.4210477853    1.0311525771    1.4655415354
C       -0.2601532294   -3.1142456295    5.1621958150
N       -0.4325904604   -1.9359409198    2.7785528119
N        0.1609145658    0.1988245097   -0.1859603915
O       -0.9721502147    0.1833128660   -0.6843002421
O        1.1831082239    0.5749866199   -0.7710141911
O        2.0310599088    1.2778910108    1.7495736706
O        0.6525019750   -2.0522541832    4.8209190583
H        2.0980407733   -0.0751072928    4.0449858495
H       -1.3049757767   -1.7050980689    0.9107356202
H        3.8719823727    2.0122387128    1.3152817316
H        3.5129040752    0.4353529178    0.5528395411
H        3.9085682047    0.5235195581    2.3052561411
H        0.0249966599   -3.4166326499    6.1697951578
H       -0.1579973029   -3.9493234751    4.4652750243
H       -1.2920397750   -2.7557658259    5.1446389710
21   
Generated by ForceBalance from scan.xyz: Frame 18 of 24
C        1.3701371931   -0.4055480604    3.3729793310
C       -0.4580232944   -1.3658993532    1.5855807975
C        0.3687451177   -0.3112025166    1.1992015919
C        1.3185798272    0.1957393972    2.1234856038
C        0.5057236372   -1.4813326163    3.6497668584
C        3.4012396371    1.0300129045    1.3515388123
C       -0.2964533376   -3.1189731804    5.1792653611
N       -0.3896853290   -1.9582586476    2.7807734662
N        0.2046621099    0.2257705412   -0.1454823039
O       -0.9066752980    0.0987737076   -0.6764368730
O        1.1822043684    0.7542533986   -0.6882586184
O        2.0823593485    1.2927690920    1.8747108387
O        0.6024937590   -2.0347431765    4.8718836771
H        2.0491887720   -0.0351687806    4.1329404275
H       -1.1954715184   -1.7445245812    0.8835116596
H        3.8742025666    2.0062240499    1.2421919948
H        3.3334467769    0.5383613166    0.3786942115
H        3.9731619571    0.4161665155    2.0571113348
H       -0.0501149352   -3.4066363165    6.2012579425
H       -0.1396780631   -3.9555004895    4.4943681015
H       -1.3355138193   -2.7885332330    5.1113004866
21   
Generated by ForceBalance from scan.xyz: Frame 19 of 24
C        1.3523076165   -0.4296918669    3.4391564180
C       -0.3899002436   -1.4120558010    1.5892924821
C        0.4314630646   -0.3407954015    1.2252063022
C        1.3566363373    0.1652756246    2.1844535306
C        0.4811070852   -1.5035515097    3.6925818075
C        3.3744496546    1.0020199650    1.2369441994
C       -0.3620280465   -3.1463894068    5.1941313930
N       -0.3687584159   -1.9982630900    2.7877079180
N        0.2335095009    0.2303140656   -0.1024402427
O       -0.7369541527   -0.1710470724   -0.7597421336
O        1.0325311308    1.0838419425   -0.5062760663
O        2.1721172823    1.2347602225    2.0000229951
O        0.5305907069   -2.0474119173    4.9206316052
H        2.0184773762   -0.0636411967    4.2121593462
H       -1.0975183104   -1.7976751349    0.8622017071
H        3.8641301057    1.9729370174    1.1599334675
H        3.1426691496    0.6282150579    0.2387316788
H        4.0212724333    0.2990774205    1.7750000910
H       -0.1560087563   -3.4243442193    6.2276204559
H       -0.1602365260   -3.9831971215    4.5215853256
H       -1.4025380023   -2.8345946565    5.0783956046
21   
Generated by ForceBalance from scan.xyz: Frame 20 of 24
C        1.2809999469   -0.5550734089    3.5498050480
C       -0.3653848279   -1.5640372451    1.6264523917
C        0.4535710531   -0.4791570150    1.3015994157
C        1.3254068032    0.0450383286    2.2975647545
C        0.3988122193   -1.6265580472    3.7708033176
C        3.2236275896    0.9417730048    1.1446976679
C       -0.4820237574   -3.2833237612    5.2348880763
N       -0.4062754618   -2.1340536706    2.8315328278
N        0.2817923142    0.1046463446   -0.0214494118
O       -0.1958042796   -0.6156160097   -0.9092229889
O        0.5913242031    1.2924604072   -0.1813049515
O        2.1900594148    1.0763050809    2.1413674471
O        0.3991763142   -2.1663984823    5.0020598697
H        1.9346072403   -0.2037165341    4.3399425369
H       -1.0309004983   -1.9618289466    0.8659674312
H        3.9149924240    1.7630085909    1.3353450330
H        2.8207984882    1.0320974914    0.1346872201
H        3.7428571733   -0.0144361391    1.2715430406
H       -0.3196882772   -3.5559839620    6.2775659380
H       -0.2309843529   -4.1166543121    4.5745742476
H       -1.5222616632   -2.9939471712    5.0691645828
21   
Generated by ForceBalance from scan.xyz: Frame 21 of 24
C        1.3312162141   -0.5014029176    3.5767845870
C       -0.2532143749   -1.5411876045    1.6167991554
C        0.5794362947   -0.4633540382    1.3016561118
C        1.4260426053    0.0719849686    2.3121448615
C        0.4339035231   -1.5593246541    3.7870498717
C        3.1985400965    1.0845344076    1.0151526829
C       -0.5007799387   -3.1886754752    5.2492586927
N       -0.3395883170   -2.0862075448    2.8294840503
N        0.4288699597    0.1190517702   -0.0222837493
O        0.0644893934   -0.6258509703   -0.9424608609
O        0.6311700246    1.3349037682   -0.1470270192
O        2.3277057186    1.0640064041    2.1656332977
O        0.3863660133   -2.0745687676    5.0290196175
H        1.9683669972   -0.1476215972    4.3791029579
H       -0.8949552181   -1.9483687687    0.8403852634
H        4.1882161137    1.3441411983    1.3963202149
H        2.8543145168    1.8314601971    0.3000187840
H        3.2385273353    0.1016543143    0.5363270809
H       -0.3780767996   -3.4409166406    6.3025282278
H       -0.2233096142   -4.0343844921    4.6156678791
H       -1.5347456683   -2.9059223185    5.0386398701
21   
Generated by ForceBalance from scan.xyz: Frame 22 of 24
C        1.3588489692   -0.5585864351    3.6019001370
C       -0.2183119290   -1.5684736111    1.6236373394
C        0.6430513236   -0.5100860507    1.3169318219
C        1.5006638966   -0.0022314759    2.3315698908
C        0.4337426321   -1.5912686248    3.8032249287
C        3.1615358549    1.1444191462    0.9693204725
C       -0.5701989915   -3.1829440438    5.2616467104
N       -0.3349956110   -2.1082228320    2.8349079293
N        0.4757270061    0.0972219331    0.0067788103
O        0.2032230872   -0.6450316944   -0.9460024203
O        0.5607660146    1.3317100527   -0.0690301501
O        2.4584196979    0.9363124485    2.2095752297
O        0.3488282925   -2.0939457265    5.0492351420
H        1.9962529529   -0.2219560270    4.4113642601
H       -0.8622552916   -1.9577196067    0.8392733461
H        4.1781654497    1.4157631780    1.2586867700
H        2.6975085394    1.9475829144    0.3980989734
H        3.1856763540    0.2270051641    0.3733813327
H       -0.4746532002   -3.4283360713    6.3194017085
H       -0.3020921207   -4.0417037614    4.6416386586
H       -1.5926268634   -2.8767871452    5.0283374819
21   
Generated by ForceBalance from scan.xyz: Frame 23 of 24
C        1.3981640633   -0.6214466777    3.6122975179
C       -0.2014850847   -1.5688726952    1.6261674193
C        0.6954496311   -0.5378490839    1.3261054544
C        1.5749728519   -0.0711521763    2.3415197413
C        0.4391908586   -1.6219974569    3.8061757890
C        3.1379410166    1.2396995553    0.9820408504
C       -0.6316258048   -3.1767350090    5.2563516330
N       -0.3416350043   -2.1114731059    2.8327642544
N        0.5250498057    0.0857472960    0.0228609544
O        0.3181452659   -0.6506645772   -0.9499615003
O        0.5311860628    1.3250009615   -0.0235731261
O        2.5921369207    0.8036564902    2.2397161885
O        0.3281794038   -2.1224469087    5.0517359901
H        2.0442665633   -0.3114305125    4.4254798026
H       -0.8564697889   -1.9305437378    0.8373146451
H        4.1610044883    1.5398091725    1.2123924399
H        2.5703701139    2.0800042780    0.5847692082
H        3.1554923625    0.4216327658    0.2555259893
H       -0.5535155171   -3.4258371917    6.3147192911
H       -0.3906230200   -4.0449385781    4.6382738284
H       -1.6404946220   -2.8335161673    5.0154016390
21   
Generated by ForceBalance from scan.xyz: Frame 24 of 24
C        1.4573729635   -0.6921192186    3.5872720073
C       -0.2134748491   -1.5729225027    1.6340752552
C        0.7244479221   -0.5862758651    1.3123859957
C        1.6424910745   -0.1569030390    2.3100848548
C        0.4577725650   -1.6466012293    3.8027337837
C        3.1152888278    1.3098492852    0.9844683387
C       -0.6682886320   -3.1333251644    5.2815404953
N       -0.3611883484   -2.1029071062    2.8453580479
N        0.5629283906    0.0150811212   -0.0051149720
O        0.4043754677   -0.7432173805   -0.9695038693
O        0.5206600920    1.2526026739   -0.0697489312
O        2.7178808750    0.6444745610    2.1955190556
O        0.3414315939   -2.1318863839    5.0543038162
H        2.1291858825   -0.4067461277    4.3885399353
H       -0.8944655971   -1.9109605216    0.8565524463
H        4.1262170432    1.6637714301    1.1886531522
H        2.4520362622    2.1446128949    0.7623292376
H        3.1398009362    0.6142394034    0.1406152620
H       -0.5882259088   -3.3775564792    6.3409229085
H       -0.4811948333   -4.0179972034    4.6680921639
H       -1.6616596911   -2.7407844493    5.0514686976
