17   
Generated by ForceBalance from scan.xyz: Frame 1 of 24
C        5.8332953823    0.1772440896   -0.8088208344
C        4.6764425716   -0.6282312984   -1.0436197808
C        5.8530265141    1.1065164414    0.1929102477
C        3.5816452153   -0.4470019345   -0.2372720023
C        4.6971588405    1.3302927103    1.0578723696
C        2.2659951024   -1.1421536125   -0.4086026817
C        2.1857415209   -2.3358772540   -1.3338322483
N        3.6099861997    0.4975918272    0.7517253137
O        4.6279212265    2.1533104905    1.9702488829
O        1.2844112229   -0.7092932295    0.1842437942
H        6.7078681947    0.0450121660   -1.4413340690
H        4.6631832481   -1.3659859847   -1.8360347523
H        6.7212035926    1.7279355014    0.3856780091
H        2.9242627890   -3.0958541252   -1.0609170370
H        2.3869759504   -2.0336562734   -2.3670700579
H        1.1821586634   -2.7582988004   -1.2767912328
H        2.7528429485    0.6388899709    1.2848124978
17   
Generated by ForceBalance from scan.xyz: Frame 2 of 24
C        5.8142306273    0.2292662580   -0.8420303742
C        4.6589055294   -0.5745044709   -1.0908287193
C        5.8533741410    1.1024199235    0.2083209191
C        3.5834660551   -0.4497416214   -0.2487894074
C        4.7167635042    1.2722444435    1.1087547225
C        2.2471792405   -1.0928431639   -0.4736933631
C        2.1884598979   -2.3774933472   -1.2692587634
N        3.6266373149    0.4494141349    0.7816620684
O        4.6595730915    2.0469877978    2.0633548561
O        1.2419971995   -0.5386245452   -0.0465966649
H        6.6715799983    0.1422001259   -1.5052437701
H        4.6321455724   -1.2686673446   -1.9214716808
H        6.7203718058    1.7222419696    0.4110516388
H        2.8579187519   -3.1313884771   -0.8436316109
H        2.5049665302   -2.2028935234   -2.3030898333
H        1.1624286747   -2.7467042518   -1.2722379558
H        2.7731179683    0.5907358588    1.3193249032
17   
Generated by ForceBalance from scan.xyz: Frame 3 of 24
C        5.7954319636    0.2919433260   -0.9157447991
C        4.6328663803   -0.5018082196   -1.1635495827
C        5.8902091942    1.0818318002    0.1951584773
C        3.6045282893   -0.4538555016   -0.2576512753
C        4.8023376800    1.1751419457    1.1618677841
C        2.2465296070   -1.0559567065   -0.4933323175
C        2.1738500618   -2.4275312025   -1.1220268944
N        3.6982766304    0.3680046086    0.8330542569
O        4.7864623276    1.8776064847    2.1723762827
O        1.2512824461   -0.4054407909   -0.2061265544
H        6.6142310336    0.2647147246   -1.6308320405
H        4.5623821629   -1.1238508088   -2.0471484030
H        6.7639618245    1.6924521674    0.3965985343
H        2.6164536834   -3.1671269168   -0.4454362320
H        2.7447615267   -2.4680103272   -2.0546172919
H        1.1320901582   -2.6832063509   -1.3189884154
H        2.8747789397    0.4849293995    1.4196630590
17   
Generated by ForceBalance from scan.xyz: Frame 4 of 24
C        5.7815252503    0.3540635199   -0.9579229577
C        4.6132479791   -0.4209492860   -1.2363174634
C        5.9002206780    1.0690444973    0.2007854704
C        3.6013425379   -0.4282471819   -0.3126142550
C        4.8335406335    1.0968296500    1.1920757473
C        2.2352875803   -1.0068648768   -0.5900788114
C        2.1674339071   -2.4537804137   -1.0150910074
N        3.7159712298    0.3191590209    0.8281666088
O        4.8362179093    1.7226522300    2.2521710360
O        1.2549137168   -0.2830536710   -0.5134046149
H        6.5862126566    0.3738595182   -1.6891763448
H        4.5211921789   -0.9833222842   -2.1579305496
H        6.7790555559    1.6640637581    0.4251248947
H        2.5093173917   -3.0931379708   -0.1929508620
H        2.8403244475   -2.6427366561   -1.8578484020
H        1.1443538722   -2.7151367588   -1.2888644855
H        2.9150587975    0.3989264845    1.4498844051
17   
Generated by ForceBalance from scan.xyz: Frame 5 of 24
C        5.7801363035    0.4436883763   -0.9962767594
C        4.5899982013   -0.2778304771   -1.3226331220
C        5.9313143353    1.0603778480    0.2146523367
C        3.5912782317   -0.3358162693   -0.3893739771
C        4.8806991679    1.0295491020    1.2197685798
C        2.2241240464   -0.9227172934   -0.6800819235
C        2.1443706800   -2.4231908610   -0.8192137119
N        3.7403797571    0.3026243722    0.8113584762
O        4.9053141695    1.5628087819    2.3293963386
O        1.2725267753   -0.1776292616   -0.8361910436
H        6.5777749558    0.5020468466   -1.7333023404
H        4.4703693901   -0.7626071243   -2.2849335218
H        6.8278316839    1.6132064987    0.4738886929
H        2.4704878969   -2.9005387839    0.1121359454
H        2.8365743182   -2.7612698858   -1.5986306940
H        1.1260608901   -2.7292542751   -1.0638199962
H        2.9657984103    0.3316525512    1.4691174596
17   
Generated by ForceBalance from scan.xyz: Frame 6 of 24
C        5.7587142872    0.5319066908   -1.0558502467
C        4.5511075813   -0.1149899769   -1.4645072484
C        5.9215768065    1.0055866392    0.2169561881
C        3.5478537131   -0.2468975202   -0.5457813942
C        4.8709818007    0.8830257375    1.2128089921
C        2.2190782802   -0.9123643688   -0.8553202577
C        2.1504614438   -2.4021462008   -0.6136734592
N        3.7149311800    0.2273190084    0.7266252791
O        4.9022043920    1.2815859998    2.3774750271
O        1.2871430145   -0.2533364983   -1.2786800561
H        6.5636212438    0.6463699778   -1.7782999964
H        4.4203374563   -0.4873870192   -2.4741760172
H        6.8329575463    1.4983282628    0.5380085620
H        2.4651160148   -2.6368968599    0.4095228041
H        2.8583121156   -2.9096502646   -1.2792942612
H        1.1392508173   -2.7703938551   -0.7939965387
H        2.9550072477    0.1748495584    1.3997458157
17   
Generated by ForceBalance from scan.xyz: Frame 7 of 24
C        5.7506310927    0.6122244244   -1.0840587939
C        4.5367766902    0.0094347126   -1.5381775611
C        5.9268245013    0.9618592884    0.2265304659
C        3.5413465505   -0.2103252775   -0.6269185319
C        4.8893180748    0.7396585752    1.2195934276
C        2.2620803939   -0.9397178983   -0.9788140454
C        2.1427627546   -2.3568942541   -0.4603146572
N        3.7314826089    0.1263818612    0.6869494133
O        4.9361626485    1.0221673686    2.4173630664
O        1.3949635532   -0.3917246713   -1.6356852497
H        6.5493528168    0.7910030638   -1.8002551004
H        4.3904553444   -0.2656288196   -2.5762198640
H        6.8433312518    1.4184297062    0.5843427444
H        2.3190702485   -2.3966970218    0.6201837651
H        2.9176387841   -2.9781586991   -0.9239551760
H        1.1554687588   -2.7577320941   -0.6942594644
H        2.9886217243   -0.0082749842    1.3672263544
17   
Generated by ForceBalance from scan.xyz: Frame 8 of 24
C        5.7300018311    0.7268799402   -1.0748505109
C        4.5144051611    0.1466355658   -1.5509756486
C        5.9388632887    0.9492648970    0.2583989918
C        3.5492855179   -0.1866642816   -0.6395001967
C        4.9349623216    0.6055180690    1.2529634138
C        2.3169975310   -0.9543562677   -1.0464371933
C        2.0776854244   -2.2784601630   -0.3468967223
N        3.7792288738    0.0129095110    0.6977121273
O        5.0130552893    0.7751894981    2.4702734162
O        1.5514733184   -0.5003881308   -1.8801609597
H        6.5038778326    0.9904471657   -1.7920142322
H        4.3375632460   -0.0307008228   -2.6051532779
H        6.8569700587    1.3873977879    0.6348961663
H        1.7650103246   -2.1095364980    0.6909292583
H        2.9930672133   -2.8770441665   -0.3132811344
H        1.2832908599   -2.8199113389   -0.8623802356
H        3.0675348053   -0.2174066924    1.3847717524
17   
Generated by ForceBalance from scan.xyz: Frame 9 of 24
C        5.7249059201    0.8197048675   -1.0712762483
C        4.5300369650    0.2111095919   -1.5620081477
C        5.9494504376    0.9632384084    0.2701995225
C        3.5998078717   -0.2308578743   -0.6592301219
C        4.9855470443    0.5005128948    1.2577447238
C        2.4004493313   -1.0193468075   -1.1057766625
C        2.0143813134   -2.2314419399   -0.2786293174
N        3.8492820817   -0.1082561625    0.6856571313
O        5.0863175060    0.5906679019    2.4819981528
O        1.7582558882   -0.6634972888   -2.0813397249
H        6.4696405834    1.1687913825   -1.7826484978
H        4.3369516708    0.0899083629   -2.6210662071
H        6.8523835493    1.4209534677    0.6600285230
H        1.4986157065   -1.9126359065    0.6363386022
H        2.8900053094   -2.8144809615    0.0214675573
H        1.3234525525   -2.8484201359   -0.8545320644
H        3.1676560726   -0.4253846201    1.3681919649
17   
Generated by ForceBalance from scan.xyz: Frame 10 of 24
C        5.7065380753    0.8966133360   -1.0595775260
C        4.5306667650    0.2565790621   -1.5532354355
C        5.9639529090    0.9707137479    0.2820127428
C        3.6525239341   -0.2904090779   -0.6549309504
C        5.0560936834    0.3984843042    1.2655984672
C        2.4539807443   -1.0677588776   -1.1180386673
C        1.9221824607   -2.1619309478   -0.2116502891
N        3.9344272431   -0.2301515235    0.6887637813
O        5.1921220867    0.4181714931    2.4897647143
O        1.9254363648   -0.7978429940   -2.1860423422
H        6.4100264924    1.3281132578   -1.7676680897
H        4.3082149573    0.1884926463   -2.6110987085
H        6.8533576636    1.4521109120    0.6745231732
H        1.4074602162   -1.7235928527    0.6528261224
H        2.7266353464   -2.8001583098    0.1677116591
H        1.1995829909   -2.7606926490   -0.7669619071
H        3.2954514979   -0.6292358033    1.3690686260
17   
Generated by ForceBalance from scan.xyz: Frame 11 of 24
C        5.6709678875    0.9566736078   -1.0694456822
C        4.5285726370    0.2636271177   -1.5683312255
C        5.9535185864    0.9870977451    0.2688761990
C        3.7054487251   -0.3787117590   -0.6805186374
C        5.1053893097    0.3137213673    1.2419845257
C        2.5197847827   -1.1718559100   -1.1493680730
C        1.8522839365   -2.1173241472   -0.1687853963
N        4.0075992034   -0.3496063097    0.6608748516
O        5.2718202070    0.2827929826    2.4623398094
O        2.1089247694   -1.0374983989   -2.2928067971
H        6.3280451957    1.4659836311   -1.7703654583
H        4.2865200550    0.2257985453   -2.6232915499
H        6.8185898404    1.5073905354    0.6662248047
H        1.3670509111   -1.5557101423    0.6392969927
H        2.5768601628   -2.8011430605    0.2865939869
H        1.0893237347   -2.6906623596   -0.6956153323
H        3.4110732063   -0.8176413154    1.3353785193
17   
Generated by ForceBalance from scan.xyz: Frame 12 of 24
C        5.6291910038    1.0222820201   -1.0790462389
C        4.5259456542    0.2763829557   -1.5887287339
C        5.9306163773    1.0203613616    0.2555754938
C        3.7611081864   -0.4517666124   -0.7150190569
C        5.1421047847    0.2594761739    1.2142168569
C        2.5868448279   -1.2571693550   -1.1917704492
C        1.7855367142   -2.0389877476   -0.1683329606
N        4.0753964769   -0.4448555555    0.6242308526
O        5.3309167364    0.1929192913    2.4299424769
O        2.2979993940   -1.2712463204   -2.3796747577
H        6.2389808806    1.6016471986   -1.7681758085
H        4.2685719851    0.2627755502   -2.6406114125
H        6.7657812620    1.5816776303    0.6609857301
H        1.3585436764   -1.3730184719    0.5907921473
H        2.4150149441   -2.7745815872    0.3462859515
H        0.9756174988   -2.5605477632   -0.6783756823
H        3.5224464542   -0.9768115920    1.2882621709
17   
Generated by ForceBalance from scan.xyz: Frame 13 of 24
C        5.5533584474    1.0803222328   -1.0873325104
C        4.4926711631    0.2748161843   -1.5973546048
C        5.8793304105    1.0643130252    0.2413633713
C        3.7972412227   -0.5256767852   -0.7290774165
C        5.1616572346    0.2304055497    1.1948850951
C        2.6353004122   -1.3529533395   -1.1978756225
C        1.7105164074   -1.9496034974   -0.1539786164
N        4.1278780398   -0.5227537967    0.6060168025
O        5.3792200871    0.1448399254    2.4045768695
O        2.4609359928   -1.5396935368   -2.3933267147
H        6.1077120222    1.7192043878   -1.7706842504
H        4.2163836709    0.2713560229   -2.6445839601
H        6.6817249352    1.6714764854    0.6468112691
H        1.3493934811   -1.1890495110    0.5468091512
H        2.2324116832   -2.7205813128    0.4265711514
H        0.8628376562   -2.4137112901   -0.6584068230
H        3.6255028865   -1.1091133511    1.2645408329
17   
Generated by ForceBalance from scan.xyz: Frame 14 of 24
C        6.1881270873   -0.0736152677   -0.0655016031
C        5.2016605974   -1.0996667743   -0.1668776868
C        5.8339474713    1.2456091024    0.0089133357
C        3.8791654531   -0.7420714901   -0.1881625351
C        4.4396762986    1.6638103141   -0.0161725170
C        2.8031174041   -1.7669852026   -0.4035259428
C        1.5146039376   -1.3158859459   -1.0651617404
N        3.5374740861    0.5882631470   -0.1358526108
O        4.0186703535    2.8196263718    0.0504479780
O        2.9716906851   -2.9186865758   -0.0316716827
H        7.2394982687   -0.3509684589   -0.0523972650
H        5.4610635544   -2.1495529845   -0.2275165978
H        6.5701375082    2.0388067055    0.0844233163
H        1.7074209389   -0.7071877665   -1.9543105585
H        0.9207551210   -0.7104458405   -0.3684381845
H        0.9280243461   -2.1953268744   -1.3324708769
H        2.5629528515    0.8720782455   -0.1476168029
17   
Generated by ForceBalance from scan.xyz: Frame 15 of 24
C        6.1744799353   -0.0834602989   -0.1451118589
C        5.1842672215   -1.1105400017   -0.2042676826
C        5.8261828148    1.2312325645   -0.0006846492
C        3.8645757574   -0.7562803635   -0.1116008681
C        4.4338729255    1.6443484911    0.0955951477
C        2.7738708443   -1.7682767120   -0.3256359304
C        1.5843869213   -1.3452422675   -1.1673968953
N        3.5254460093    0.5695197294    0.0033977820
O        4.0162447914    2.7944366152    0.2368893649
O        2.8478610604   -2.8717291498    0.1917436240
H        7.2239851592   -0.3574633657   -0.2225936483
H        5.4433514340   -2.1562184768   -0.3183173543
H        6.5652129289    2.0240889067    0.0437036489
H        1.8922465527   -0.7747515513   -2.0485738894
H        0.9143991178   -0.7073422174   -0.5766201205
H        1.0254207382   -2.2338284541   -1.4635085750
H        2.5521320444    0.8487585846    0.0790522756
17   
Generated by ForceBalance from scan.xyz: Frame 16 of 24
C        6.1400172144   -0.0961294313   -0.2306570040
C        5.1392162191   -1.1153863634   -0.2540694984
C        5.8170255762    1.2143661960   -0.0094843970
C        3.8350699803   -0.7546262144   -0.0481453543
C        4.4414248475    1.6315281040    0.2114698874
C        2.7100581202   -1.7427273109   -0.2256238851
C        1.6439579796   -1.3851967238   -1.2431703849
N        3.5170961572    0.5655826631    0.1436134995
O        4.0433095067    2.7756452330    0.4333440560
O        2.6670714108   -2.7597157670    0.4460183003
H        7.1781424710   -0.3736049999   -0.3979290229
H        5.3847359688   -2.1567940838   -0.4249545844
H        6.5654489418    1.9993045738    0.0096246131
H        2.0931309791   -1.0383327311   -2.1787309470
H        1.0158175991   -0.5690057662   -0.8654461813
H        1.0093639099   -2.2545231960   -1.4207174442
H        2.5555341445    0.8469515139    0.3104427877
17   
Generated by ForceBalance from scan.xyz: Frame 17 of 24
C        6.1106697512   -0.1094647763   -0.3427292418
C        5.0916882610   -1.1108512265   -0.3862459378
C        5.8284038501    1.1828759575    0.0052466259
C        3.8129150645   -0.7479914620   -0.0658629252
C        4.4793137038    1.5993145229    0.3494617279
C        2.6433006371   -1.7024542371   -0.1830686826
C        1.7097880059   -1.4708879588   -1.3520204957
N        3.5332660600    0.5513200517    0.2650790206
O        4.1144446382    2.7265546258    0.6853006248
O        2.4842602734   -2.5917580194    0.6338754262
H        7.1312489590   -0.3867214562   -0.5964318935
H        5.3116190271   -2.1369370397   -0.6572078085
H        6.5922891803    1.9521161356    0.0407657799
H        2.2559643037   -1.6332301436   -2.2883241599
H        1.3573560498   -0.4338604957   -1.3746876761
H        0.8613458057   -2.1541716096   -1.2932124471
H        2.5916626406    0.8254893013    0.5315325679
17   
Generated by ForceBalance from scan.xyz: Frame 18 of 24
C        6.0703622227   -0.0919854726   -0.4154312770
C        5.0176085293   -1.0558283334   -0.4961741938
C        5.8456969575    1.1760796156    0.0455142386
C        3.7670383238   -0.6799469887   -0.0927472970
C        4.5281232440    1.6020548449    0.4848830700
C        2.5672923993   -1.6092903455   -0.1280453662
C        1.7646687885   -1.6088260562   -1.4080230118
N        3.5463251853    0.5896905437    0.3667127235
O        4.2147385443    2.7075733590    0.9274868345
O        2.3018030336   -2.3047498404    0.8352369586
H        7.0709884360   -0.3794206287   -0.7301455021
H        5.1958997014   -2.0620165199   -0.8581162702
H        6.6365571488    1.9154341522    0.1116353069
H        2.3953794558   -1.9654130995   -2.2306523866
H        1.4640991153   -0.5876955305   -1.6687832338
H        0.8868381879   -2.2489729230   -1.3065717110
H        2.6295538887    0.8599738508    0.7128342174
17   
Generated by ForceBalance from scan.xyz: Frame 19 of 24
C        6.0223214020   -0.0396786757   -0.4992922052
C        4.9153904775   -0.9320337403   -0.6467508212
C        5.8774751000    1.1858828206    0.0896414619
C        3.6942522182   -0.5328527904   -0.1762688428
C        4.5955897078    1.6307562200    0.6125881860
C        2.4901168763   -1.4522332948   -0.1241555236
C        1.8411761091   -1.7972991653   -1.4422127251
N        3.5618927471    0.6844539045    0.4331334330
O        4.3584550534    2.7013423580    1.1728701888
O        2.1296882091   -1.9088465759    0.9467050932
H        6.9991664328   -0.3497286236   -0.8632876312
H        5.0331666559   -1.9049709100   -1.1101976506
H        6.7094524183    1.8714375244    0.2096418137
H        2.5810076299   -2.2496128515   -2.1123557097
H        1.4937737105   -0.8830627746   -1.9371233182
H        1.0074175334   -2.4839037510   -1.2876405361
H        2.6752386493    0.9456084162    0.8563462472
17   
Generated by ForceBalance from scan.xyz: Frame 20 of 24
C        5.9671734115   -0.0201775084   -0.5790958645
C        4.8362524857   -0.8712264875   -0.7783134840
C        5.8569387726    1.1562990111    0.1076932664
C        3.6299478674   -0.4837633315   -0.2568374593
C        4.5934702851    1.5858667542    0.6910830318
C        2.4285075552   -1.3949924198   -0.1932650926
C        1.9378905931   -1.9873545295   -1.4921788874
N        3.5397631947    0.6792633079    0.4590095268
O        4.3985948487    2.6131198524    1.3409440538
O        1.9368128236   -1.6581980057    0.8929816472
H        6.9313062613   -0.3230197005   -0.9808621139
H        4.9272939913   -1.8053855084   -1.3197515733
H        6.7061446969    1.8115004132    0.2696413043
H        2.7576257401   -2.4733244232   -2.0312464701
H        1.5674101876   -1.1867418283   -2.1428332886
H        1.1414541516   -2.7068242348   -1.2972728593
H        2.6701284717    0.8985266284    0.9385845811
17   
Generated by ForceBalance from scan.xyz: Frame 21 of 24
C        5.9329389405    0.0162206880   -0.6366017461
C        4.7850138696   -0.8075839255   -0.8528403173
C        5.8582108135    1.1491360924    0.1235503991
C        3.5972790777   -0.4367718741   -0.2765392429
C        4.6162676906    1.5547877286    0.7715719489
C        2.3735758340   -1.3102375635   -0.2338681400
C        2.0007963291   -2.0771083516   -1.4807832512
N        3.5447173445    0.6819079387    0.5107785053
O        4.4613625912    2.5397140912    1.4932611867
O        1.7457838108   -1.4009038984    0.8119685009
H        6.8806797654   -0.2724092069   -1.0849450014
H        4.8506080523   -1.7055505523   -1.4545112854
H        6.7201866891    1.7836398686    0.3004003894
H        2.8436104726   -2.6689809249   -1.8504353360
H        1.7303691388   -1.3755118322   -2.2778423118
H        1.1579329139   -2.7349055892   -1.2655268008
H        2.6888001117    0.8650361590    1.0301813468
17   
Generated by ForceBalance from scan.xyz: Frame 22 of 24
C        5.9022549667    0.0720530896   -0.7168069714
C        4.7376686839   -0.7309315204   -0.9200157073
C        5.8738051464    1.1602567682    0.1091587850
C        3.5838576038   -0.3849710869   -0.2639081742
C        4.6664468044    1.5403703859    0.8365412688
C        2.3375478922   -1.2189739994   -0.2410791133
C        2.0650671036   -2.1438586696   -1.4060744922
N        3.5775086228    0.6906802011    0.5818416952
O        4.5586607098    2.4888786074    1.6133165940
O        1.6022919691   -1.1609443702    0.7366537706
H        6.8240041996   -0.1946521555   -1.2283877989
H        4.7620899961   -1.5905059114   -1.5781753782
H        6.7485007119    1.7795256656    0.2776588703
H        2.8241357324   -2.9319873444   -1.4538176402
H        2.0966595102   -1.5989944079   -2.3545774537
H        1.0863603964   -2.6055027358   -1.2714711360
H        2.7357518384    0.8527801922    1.1320947356
17   
Generated by ForceBalance from scan.xyz: Frame 23 of 24
C        5.8648645952    0.1143056611   -0.7474797055
C        4.7104396486   -0.6967258578   -0.9751631210
C        5.8409631306    1.1349646635    0.1608595949
C        3.5717258454   -0.4260322904   -0.2598670717
C        4.6474546683    1.4347617224    0.9482984399
C        2.3128572554   -1.2359473146   -0.3117005409
C        2.1437855637   -2.2499641774   -1.4210298650
N        3.5658029630    0.5899420457    0.6560996484
O        4.5483540881    2.3196464640    1.7977902627
O        1.4661278265   -1.0745732063    0.5597979753
H        6.7739853100   -0.0892712815   -1.3082698506
H        4.7309783520   -1.5041879191   -1.6962572410
H        6.7073406316    1.7604190686    0.3486975434
H        2.8877103534   -3.0480488730   -1.3254783056
H        2.2785893351   -1.7868237202   -2.4032298124
H        1.1463649406   -2.6848090058   -1.3508047909
H        2.7181684774    0.7129356183    1.2086116766
17   
Generated by ForceBalance from scan.xyz: Frame 24 of 24
C        5.8679520043    0.1230714622   -0.8089480009
C        4.7048948049   -0.6775506742   -1.0288789046
C        5.8785459744    1.1025941762    0.1438936088
C        3.5948888381   -0.4396215293   -0.2587513919
C        4.7109465842    1.3776281116    0.9782018776
C        2.2999404417   -1.1843748567   -0.3600517874
C        2.1698581727   -2.2928496604   -1.3806765997
N        3.6197291050    0.5440730733    0.6912557658
O        4.6385929010    2.2382151991    1.8549394154
O        1.3782794544   -0.8762857794    0.3874910119
H        6.7551435713   -0.0544389939   -1.4120854031
H        4.6979714711   -1.4532827428   -1.7841440473
H        6.7515684939    1.7205495716    0.3255808113
H        2.9098918816   -3.0784667289   -1.1973501920
H        2.3355509846   -1.9107324304   -2.3930575435
H        1.1675282052   -2.7164815881   -1.3127941657
H        2.7701214348    0.6820123030    1.2375595688
