19   
Generated by ForceBalance from scan.xyz: Frame 1 of 7
C        1.9403156367   -1.0010789137   -0.1554909566
C        0.8316998549   -0.4323243267    0.4852141179
C        2.9512687815   -1.5907898942    0.5992439507
C        0.7680340779   -0.4718267494    1.8821148028
C        2.8921838940   -1.6495301288    2.0115228104
C        1.7682983448   -1.0698686322    2.6624091815
C        3.9915016973   -2.2991160369    2.7166947512
C        1.6283740239   -1.0700499918    4.1658612695
N        5.2208030885   -2.5431604570    2.1236926443
N        3.9642357359   -2.7768451683    4.0173482207
N        5.9475027329   -2.8970255302    3.2172099532
N        5.0948302124   -3.5386232734    4.0170189879
H        2.0178164447   -0.9794885080   -1.2414757485
H        0.0345376100    0.0357735135   -0.0892030018
H        3.8231659956   -2.0206772973    0.1154217007
H       -0.0872698123   -0.0258466028    2.3889734242
H        1.5658763363   -2.0892556413    4.5568115643
H        2.5086552960   -0.6314319990    4.6477512456
H        0.7388812989   -0.5048073673    4.4682556719
19   
Generated by ForceBalance from scan.xyz: Frame 2 of 7
C        1.9437527313   -0.9904891453   -0.1478502070
C        0.8329088338   -0.4281296887    0.4932355627
C        2.9528456867   -1.5835063232    0.6076702319
C        0.7648897663   -0.4752290929    1.8890896520
C        2.8904528449   -1.6471250087    2.0181265319
C        1.7657989412   -1.0736275564    2.6699292947
C        3.9951469489   -2.3005790314    2.7232356223
C        1.6181509487   -1.0773401405    4.1730273844
N        5.1852686519   -2.5906539287    2.1186653940
N        3.9902811029   -2.7218247782    4.0218271219
N        5.9508852323   -3.0144063023    3.1461670096
N        5.1331194968   -3.4403784412    4.1110296209
H        2.0237852014   -0.9637573405   -1.2334588651
H        0.0359319544    0.0410590498   -0.0807006038
H        3.8257626248   -2.0135737999    0.1263068345
H       -0.0929900993   -0.0339178327    2.3953850756
H        1.5504071908   -2.0967772309    4.5622459951
H        2.4973076880   -0.6442613662    4.6603290367
H        0.7276326046   -0.5109076350    4.4704555136
19   
Generated by ForceBalance from scan.xyz: Frame 3 of 7
C        1.9537522451   -0.9733977178   -0.1560789675
C        0.8384394108   -0.4188027377    0.4832668047
C        2.9590065505   -1.5711463360    0.6009851918
C        0.7619867490   -0.4780322387    1.8777194111
C        2.8913804234   -1.6433839231    2.0104471099
C        1.7615037809   -1.0781892209    2.6601848972
C        3.9999428642   -2.3001290722    2.7147921535
C        1.5972266075   -1.0937141416    4.1616530793
N        5.1381320519   -2.6856696011    2.0803510953
N        4.0377393208   -2.6167443709    4.0345586125
N        5.9173613507   -3.1586623603    3.0653752921
N        5.1918612184   -3.2939553293    4.1745264264
H        2.0397431107   -0.9385255514   -1.2409656113
H        0.0433772420    0.0530932651   -0.0911951891
H        3.8334557947   -2.0004956719    0.1221468894
H       -0.1009035921   -0.0446858808    2.3822617083
H        1.5421292221   -2.1164422367    4.5446685450
H        2.4629013773   -0.6505962128    4.6621716416
H        0.6918707382   -0.5464282284    4.4504154854
19   
Generated by ForceBalance from scan.xyz: Frame 4 of 7
C        1.9505891213   -0.9517059693   -0.1144842266
C        0.8374066901   -0.4014391333    0.5318656478
C        2.9551554808   -1.5597710096    0.6354021071
C        0.7615995131   -0.4769135480    1.9254711635
C        2.8910598797   -1.6428284566    2.0441871497
C        1.7619125119   -1.0848501517    2.7011875526
C        4.0034391313   -2.3048369906    2.7400018547
C        1.5944654624   -1.1199688563    4.2020211139
N        5.0647504634   -2.8262930547    2.0800880837
N        4.1244816178   -2.4813955737    4.0759501178
N        5.8515568414   -3.3333272941    3.0391612976
N        5.2915136720   -3.1283255636    4.2330672089
H        2.0349812744   -0.9068462751   -1.1991132352
H        0.0423375467    0.0777511458   -0.0365546317
H        3.8254541463   -1.9917643413    0.1515471222
H       -0.1018867712   -0.0507623991    2.4349998744
H        1.6037248746   -2.1461485401    4.5797723956
H        2.4289459413   -0.6261922365    4.7075831035
H        0.6545602566   -0.6340226326    4.4902550256
19   
Generated by ForceBalance from scan.xyz: Frame 5 of 7
C        1.9720906359   -0.9370543177   -0.1483160574
C        0.8546104831   -0.3872563906    0.4913867241
C        2.9684588582   -1.5521298101    0.6066155980
C        0.7654468521   -0.4716388016    1.8837860867
C        2.8939525253   -1.6388701862    2.0149085007
C        1.7589456281   -1.0839188584    2.6645316787
C        3.9997888419   -2.3016036239    2.7179828050
C        1.5778365832   -1.1322550550    4.1633597440
N        4.9893730205   -2.9604270521    2.0597254586
N        4.1920978387   -2.3348495287    4.0615938368
N        5.7416951611   -3.4844225414    3.0398817615
N        5.3792081647   -2.9515459009    4.2058096985
H        2.0653175683   -0.8874831859   -1.2320324526
H        0.0656087985    0.0965278433   -0.0815411644
H        3.8384942477   -1.9890123352    0.1265533516
H       -0.1033440135   -0.0498045729    2.3879600873
H        1.6468303206   -2.1565549963    4.5405987770
H        2.3744048692   -0.5874113519    4.6774955492
H        0.6060453410   -0.7076287509    4.4424493765
19   
Generated by ForceBalance from scan.xyz: Frame 6 of 7
C        1.9801734917   -0.9203881632   -0.1370733533
C        0.8583664227   -0.3791539076    0.5030467848
C        2.9750180442   -1.5408100315    0.6153862146
C        0.7635583253   -0.4773157225    1.8947031828
C        2.8961655858   -1.6369183539    2.0231420133
C        1.7566768294   -1.0912530981    2.6733215574
C        3.9969152891   -2.2985022762    2.7267537974
C        1.5749622631   -1.1599551161    4.1710942744
N        4.9322020656   -3.0572618763    2.0821294317
N        4.2554932380   -2.2367706147    4.0659713636
N        5.6338138306   -3.6005924930    3.0988212577
N        5.4742571118   -2.8147363212    4.1660323894
H        2.0770232334   -0.8612209040   -1.2200180233
H        0.0703723493    0.1073778081   -0.0688448164
H        3.8450992604   -1.9753460693    0.1328845734
H       -0.1093638834   -0.0643764988    2.3992470887
H        1.6588596039   -2.1886507033    4.5353918287
H        2.3625471503   -0.6085919947    4.6916619826
H        0.5954843492   -0.7574161519    4.4555763793
19   
Generated by ForceBalance from scan.xyz: Frame 7 of 7
C        1.9876701095   -0.9110110939   -0.1431610161
C        0.8620338628   -0.3746168181    0.4957790308
C        2.9806228594   -1.5348580126    0.6080124030
C        0.7632278913   -0.4805527723    1.8871673161
C        2.8993660060   -1.6363243156    2.0167654939
C        1.7555538523   -1.0943182183    2.6653817910
C        3.9940998399   -2.2953482120    2.7203272867
C        1.5749390481   -1.1716047044    4.1624965451
N        4.9119731106   -3.1124637318    2.0783612152
N        4.2872287553   -2.1844400207    4.0703497529
N        5.5289319969   -3.6700364119    3.1542400492
N        5.5415185724   -2.7182901828    4.0882677920
H        2.0873332577   -0.8470512003   -1.2256656966
H        0.0750201691    0.1129711508   -0.0764102907
H        3.8500256760   -1.9687080042    0.1232429473
H       -0.1120990618   -0.0721373610    2.3914995829
H        1.6571121239   -2.2033104514    4.5207455112
H        2.3639404681   -0.6234683720    4.6845533945
H        0.5958604512   -0.7717700992    4.4517616217
