45   

C       -2.7926436078   -1.1499852272   -0.8874510280
C       -1.7908690949   -0.1097956956   -0.6153852038
C       -0.6460822596   -0.6448742463   -0.0525812983
C       -4.0938192670   -0.9901785498   -1.5270878585
C       -2.3850437223   -2.3895686745   -0.5046179702
C       -4.4824333032   -3.3174969470   -1.2264755806
C       -7.2922861034   -1.8417457363   -1.0625456904
C       -7.9017777202   -0.7340216601   -0.6047004323
C       -2.0295355584    1.3570895560   -0.8871299565
C       -8.6139601185   -0.7484001083    0.7275725271
C       -7.7940173526    0.5871167814   -1.3289489037
C       -0.5642990398   -5.5979680353   -3.2133626645
C        0.6034623352    0.0771001630    0.3753707167
C       -6.2911451490   -1.9302288140   -2.1857226981
C       -2.7649040220   -4.8454093638   -0.2952146540
C       -2.2262245424   -5.6265985745   -1.4943192559
N       -4.9487980367   -2.0732063820   -1.6220291322
N       -3.2132959407   -3.5045450263   -0.6797367633
O       -4.4042564392    0.0810145556   -2.0286901349
O       -5.2124395995   -4.2935003172   -1.3587829740
O        1.7100218375   -0.4734961817   -0.3364608661
O       -1.0690442132   -4.9743415821   -2.0297544536
S       -0.7641638325   -2.3896927655    0.1806367243
H       -7.4694798469   -2.7711997713   -0.5320107025
H       -3.0136648888    1.6508638465   -0.5100619802
H       -1.2916019575    1.9942826965   -0.3971829222
H       -1.9995362501    1.5446147609   -1.9645204924
H       -8.2940286292    0.1014891016    1.3381823819
H       -9.6950700619   -0.6837396612    0.5723204823
H       -8.3949132986   -1.6660923400    1.2822043388
H       -8.4351780855    0.5796687379   -2.2149267440
H       -8.1152989342    1.4082877386   -0.6815220733
H       -6.7679165588    0.7968685230   -1.6336379076
H        0.3495022738   -5.0892896017   -3.5350827490
H       -1.3004996815   -5.5360176819   -4.0210101795
H       -0.3279291080   -6.6497140826   -3.0227263684
H        0.5395110291    1.1475659384    0.1690900935
H        0.7550175471   -0.0524464101    1.4516298882
H       -6.3598480057   -1.0607435089   -2.8472860618
H       -6.5293002685   -2.7945215949   -2.8157497927
H       -3.5995954241   -5.4000856461    0.1460843676
H       -1.9935369174   -4.7930669658    0.4778065818
H       -3.0052406451   -5.7082337265   -2.2598924564
H       -1.9586979595   -6.6372637030   -1.1700112157
H        1.4974908049   -0.5482073083   -1.2841594990
45   

C       -2.8771435833   -1.2079528506   -0.8729151372
C       -1.8975154898   -0.1583255210   -0.5578504630
C       -0.7674102149   -0.6850070404    0.0414863302
C       -4.1809305901   -1.0536212275   -1.5105972805
C       -2.4588655512   -2.4479087740   -0.5004025704
C       -4.5151733407   -3.4016152607   -1.3008084463
C       -7.3296439464   -1.9005556582   -1.1261654184
C       -7.8734741803   -0.7660393769   -0.6482644156
C       -2.1236406828    1.3028703908   -0.8677167253
C       -8.2849444352   -0.6582940078    0.8009652283
C       -7.8854255886    0.4963422803   -1.4745201778
C       -0.5074556708   -5.5904216048   -3.1988820661
C        0.4543299865    0.0428481148    0.5313734918
C       -6.3334065207   -2.0220733350   -2.2529780626
C       -2.8026749014   -4.9132105542   -0.3361208386
C       -2.2169950703   -5.6694013532   -1.5291172797
N       -4.9958130525   -2.1582010111   -1.6797193541
N       -3.2617844070   -3.5743928892   -0.7155013438
O       -4.5469273200    0.0424858302   -1.9119105401
O       -5.2216562982   -4.3881601876   -1.4748133447
O        1.5479750731   -0.2982359951   -0.3181313496
O       -1.0561266255   -4.9910816072   -2.0222937947
S       -0.8630173173   -2.4340768945    0.2410774664
H       -7.4544675527   -2.8005478464   -0.5336530792
H       -2.9663649638    1.6788667924   -0.2796335737
H       -1.2470088378    1.9145255469   -0.6487283843
H       -2.3574266001    1.4272153810   -1.9291782723
H       -7.9384754170    0.2900341343    1.2230206452
H       -9.3748600506   -0.7033014802    0.8835121866
H       -7.8537960879   -1.4725037090    1.3915644671
H       -8.6736578384    1.1689232914   -1.1230491606
H       -6.9270378535    1.0156663109   -1.3869940974
H       -8.0810338480    0.2745256678   -2.5274962923
H        0.4057364644   -5.0617236096   -3.4884387215
H       -1.2218315626   -5.5310171176   -4.0260902086
H       -0.2578113924   -6.6402489334   -3.0146963754
H        0.3054446974    1.1248920916    0.5240901795
H        0.6765468973   -0.2557648583    1.5607000608
H       -6.3857799177   -1.1591514362   -2.9244284138
H       -6.5802826602   -2.8936746995   -2.8693853897
H       -3.6407760854   -5.4869856357    0.0731513444
H       -2.0550485077   -4.8597393810    0.4597606725
H       -2.9722271747   -5.7534703172   -2.3178983556
H       -1.9420653227   -6.6798336197   -1.2103260857
H        1.2708374955   -0.2766744400   -1.2515809442
45   

C       -2.9296984964   -1.2410499207   -0.8746417154
C       -1.9657338235   -0.1866828375   -0.5285131151
C       -0.8401101431   -0.7111208009    0.0811020490
C       -4.2265304569   -1.0898506664   -1.5271466614
C       -2.5046518511   -2.4822967053   -0.5139915871
C       -4.5380635887   -3.4447872695   -1.3608357607
C       -7.3522931982   -1.9263558098   -1.1733119564
C       -7.8220156806   -0.7752251964   -0.6518178656
C       -2.1992691286    1.2766408409   -0.8224367199
C       -7.9168183328   -0.5734496941    0.8415170302
C       -7.9534359469    0.4504864345   -1.5211715799
C       -0.4828604710   -5.5736125924   -3.2189395391
C        0.3661659530    0.0216468261    0.6010436126
C       -6.3611734221   -2.0661127679   -2.3058903756
C       -2.8285695368   -4.9525033230   -0.3851636753
C       -2.2166152155   -5.6897876083   -1.5766632808
N       -5.0245621517   -2.2009923873   -1.7303614129
N       -3.2928655566   -3.6134415869   -0.7573126388
O       -4.6045149765    0.0106631575   -1.9048584690
O       -5.2333960571   -4.4350108811   -1.5568060444
O        1.4777933910   -0.2998818248   -0.2326081941
O       -1.0539536493   -4.9954305981   -2.0424826052
S       -0.9210162330   -2.4638242002    0.2530758794
H       -7.4364800926   -2.8122775477   -0.5531305501
H       -3.0417933609    1.6428061591   -0.2279172223
H       -1.3240305213    1.8893192650   -0.6005620115
H       -2.4363552314    1.4115555030   -1.8818452854
H       -7.4736838481    0.3866926735    1.1230033463
H       -8.9652037497   -0.5828652089    1.1535655462
H       -7.3837645037   -1.3657949962    1.3759192870
H       -8.7718571752    1.0796848815   -1.1585353649
H       -7.0290727149    1.0349459556   -1.4932639117
H       -8.1734376990    0.1772350134   -2.5572817592
H        0.4294176117   -5.0326643184   -3.4880058582
H       -1.1857819814   -5.5094620180   -4.0555538328
H       -0.2261511630   -6.6235186913   -3.0452478464
H        0.2075465844    1.1023522155    0.6036715295
H        0.5727514991   -0.2870535057    1.6306498881
H       -6.4095032176   -1.2048818572   -2.9802400017
H       -6.6154181039   -2.9403436631   -2.9155232879
H       -3.6683155081   -5.5380802078    0.0035339140
H       -2.0947963833   -4.9017799647    0.4236873479
H       -2.9579904865   -5.7713567257   -2.3787465479
H       -1.9378684804   -6.7013502791   -1.2648632153
H        1.2170552424   -0.2704635862   -1.1705575339
45   

C       -2.9899624103   -1.2518462190   -0.8589240756
C       -2.0435693819   -0.1884958682   -0.4924342709
C       -0.9195759181   -0.7036452656    0.1280006769
C       -4.2837186012   -1.1115990577   -1.5203354495
C       -2.5528920823   -2.4906620038   -0.5034086017
C       -4.5595245500   -3.4740654632   -1.3883603106
C       -7.3797965378   -1.9313141983   -1.2037020041
C       -7.7810164913   -0.7606775121   -0.6586433069
C       -2.2865787086    1.2738569022   -0.7830571501
C       -7.5627591681   -0.4541455488    0.8034938741
C       -8.1056437817    0.4064015201   -1.5584969514
C       -0.4629264228   -5.5484238548   -3.1979936588
C        0.2703275840    0.0404799636    0.6690030772
C       -6.3914154749   -2.1092003013   -2.3367333142
C       -2.8489757114   -4.9655062649   -0.3906425310
C       -2.2130287085   -5.6925653845   -1.5757352543
N       -5.0570045118   -2.2340225210   -1.7551681084
N       -3.3225777258   -3.6303700198   -0.7653387053
O       -4.6873762307   -0.0092168942   -1.8659257157
O       -5.2391957584   -4.4715957952   -1.6008868053
O        1.3982694011   -0.2652184809   -0.1485756069
O       -1.0523445509   -4.9836292104   -2.0241112519
S       -0.9799132710   -2.4584786017    0.2846634025
H       -7.4137952308   -2.7914834440   -0.5438705601
H       -3.1178290830    1.6388186214   -0.1722158060
H       -1.4073023377    1.8876817158   -0.5806884955
H       -2.5442549759    1.4079635172   -1.8377110417
H       -6.4924371971   -0.4711482481    1.0304381577
H       -7.9576670031    0.5342211108    1.0576447791
H       -8.0677598595   -1.2002763312    1.4239596400
H       -9.0873009908    0.8133162540   -1.2984949941
H       -7.3545610012    1.1933513157   -1.4353516452
H       -8.1309540738    0.1107939299   -2.6110587515
H        0.4456417340   -4.9954511031   -3.4548506122
H       -1.1581861704   -5.4876211664   -4.0412416300
H       -0.1958919347   -6.5962790736   -3.0275351479
H        0.0990226795    1.1192975818    0.6734850212
H        0.4646376220   -0.2701045311    1.7004402832
H       -6.4311293218   -1.2612726203   -3.0282869997
H       -6.6534318046   -2.9950948482   -2.9258654850
H       -3.6876936566   -5.5611672210   -0.0152177507
H       -2.1269260569   -4.9095533225    0.4283411210
H       -2.9427753095   -5.7803568343   -2.3877698478
H       -1.9269413622   -6.7017649990   -1.2629347863
H        1.1516031033   -0.2361464734   -1.0903242891
45   

C       -3.0264577743   -1.2597712619   -0.8632988644
C       -2.0901765830   -0.1928211436   -0.4817225465
C       -0.9732237960   -0.7037776354    0.1549648088
C       -4.3108373958   -1.1245785396   -1.5440716186
C       -2.5893912238   -2.4969894513   -0.5021126107
C       -4.5796358603   -3.4880503121   -1.4140275654
C       -7.4066680982   -1.9621556499   -1.2489227611
C       -7.7223388319   -0.8104249921   -0.6036181701
C       -2.3372451888    1.2684916161   -0.7738805158
C       -7.2294656337   -0.5097572625    0.7919206408
C       -8.1100562989    0.3874100419   -1.4390583483
C       -0.4575385489   -5.5391163233   -3.1804926079
C        0.2058519382    0.0438198740    0.7149342194
C       -6.4077186245   -2.1315629033   -2.3786375390
C       -2.8753937962   -4.9735437954   -0.3971336353
C       -2.2228422967   -5.6960051022   -1.5760159275
N       -5.0767405956   -2.2500133417   -1.7880887440
N       -3.3502125202   -3.6398132197   -0.7755144630
O       -4.7135707302   -0.0240334742   -1.8967437828
O       -5.2531357020   -4.4881853650   -1.6341047371
O        1.3541365082   -0.2816226106   -0.0659325391
O       -1.0604223543   -4.9810899611   -2.0102084109
S       -1.0284827604   -2.4590477353    0.3090290415
H       -7.4806070445   -2.8613671899   -0.6469602721
H       -3.1842233834    1.6258107712   -0.1803835706
H       -1.4674374707    1.8884274443   -0.5506723977
H       -2.5731169788    1.4031660246   -1.8335700585
H       -6.6253884030    0.4026091832    0.8004337578
H       -8.0792676407   -0.3787011602    1.4679653267
H       -6.6088641899   -1.3303778186    1.1646037530
H       -9.1484143933    0.6603425832   -1.2296588469
H       -7.4696354680    1.2442509766   -1.2072498364
H       -8.0233308850    0.1814501738   -2.5094378701
H        0.4513749129   -4.9817549495   -3.4263981100
H       -1.1448102045   -5.4776338787   -4.0302192256
H       -0.1882268134   -6.5866248885   -3.0114913348
H        0.0411933658    1.1234219118    0.6964538950
H        0.3704423319   -0.2502659965    1.7563366644
H       -6.4512986502   -1.2824785033   -3.0686261595
H       -6.6593816890   -3.0186323867   -2.9705405425
H       -3.7158643045   -5.5733275315   -0.0323149022
H       -2.1630364614   -4.9159699425    0.4301646708
H       -2.9429981067   -5.7859063108   -2.3963502873
H       -1.9357052146   -6.7043857175   -1.2615348119
H        1.1346168155   -0.2633688848   -1.0146601744
45   

C       -3.0643898913   -1.2257906233   -0.9198446955
C       -2.1359521451   -0.1560976900   -0.5272485462
C       -1.0379021737   -0.6609882792    0.1463755593
C       -4.3300173769   -1.0970022249   -1.6364418941
C       -2.6403597958   -2.4589857436   -0.5302197997
C       -4.6088139952   -3.4577121492   -1.4789788075
C       -7.4436038697   -1.9519709347   -1.3959383502
C       -7.6799501561   -0.8742902265   -0.5961909169
C       -2.3731852968    1.3013596906   -0.8451955113
C       -6.9845601792   -0.6726639680    0.7301888047
C       -8.1602868143    0.3829325926   -1.2812420038
C       -0.4492733330   -5.5334448378   -3.1209438284
C        0.1280109224    0.0904486419    0.7286863938
C       -6.4111635456   -2.1132073830   -2.5014135988
C       -2.9330121424   -4.9339556704   -0.4033200241
C       -2.2529786060   -5.6704733473   -1.5578149376
N       -5.0927690477   -2.2237397819   -1.8826010761
N       -3.3962265566   -3.6038359929   -0.8081419977
O       -4.7222814289   -0.0006561256   -2.0131170681
O       -5.2786933619   -4.4595174060   -1.7031901675
O        1.3025937813   -0.2747177829    0.0066404266
O       -1.0791105545   -4.9620705436   -1.9714557079
S       -1.1020010426   -2.4139406584    0.3221998481
H       -7.6311547046   -2.9068640563   -0.9170919420
H       -3.2391694855    1.6655412669   -0.2842004522
H       -1.5115150888    1.9246290656   -0.6010103672
H       -2.5744970513    1.4225359812   -1.9136286837
H       -6.3379078350    0.2096376836    0.6988443581
H       -7.7251493281   -0.5433383789    1.5246678885
H       -6.3627476367   -1.5404481598    0.9704571935
H       -9.2265433978    0.5264409597   -1.0842690333
H       -7.6174590628    1.2605354364   -0.9166439385
H       -8.0126949901    0.3261844501   -2.3640180100
H        0.4667663668   -4.9806971470   -3.3502620226
H       -1.1154514974   -5.4790981776   -3.9877848658
H       -0.1867775784   -6.5797817838   -2.9348110463
H       -0.0203632287    1.1707903593    0.6684231941
H        0.2465768181   -0.1713435178    1.7848682499
H       -6.4547787368   -1.2612471682   -3.1887281926
H       -6.6391561156   -3.0023977083   -3.0997715404
H       -3.7831657060   -5.5285123370   -0.0526275473
H       -2.2410722195   -4.8682679732    0.4405197449
H       -2.9529996066   -5.7686107775   -2.3944797959
H       -1.9752634179   -6.6756933991   -1.2252515148
H        1.1232563595   -0.2807392517   -0.9506649064
45   

C       -2.7033819362   -1.0285847435   -0.3954020746
C       -1.6189881048   -0.0396297278   -0.3159922911
C       -0.4350769872   -0.6195354650    0.1036927187
C       -4.0891849518   -0.8088752176   -0.7992456768
C       -2.3016452357   -2.2794318750   -0.0400023298
C       -4.5155390396   -3.1244291075   -0.4396173753
C       -7.2667905037   -1.3441393991   -0.1030883946
C       -8.4009235497   -0.5940718594   -0.1939306861
C       -1.8027803762    1.4173236095   -0.6697636771
C       -9.7661127209   -1.1833961121   -0.4744361635
C       -8.2240146684    0.8724063945   -0.5066843256
C       -1.0054434153   -5.6638224786   -2.8638736272
C        0.8979870739    0.0391721476    0.3307527007
C       -6.3512485593   -1.6852881003   -1.2584106772
C       -2.7559540208   -4.7101647710    0.2938008879
C       -2.4286500266   -5.5446598484   -0.9458518697
N       -4.9789183374   -1.8671441296   -0.7942324854
N       -3.1950588646   -3.3570537955   -0.0587514974
O       -4.4640878217    0.2991510625   -1.1589616812
O       -5.2956226634   -4.0698989926   -0.4562272081
O        1.8062163312   -0.4331638245   -0.6624279675
O       -1.3319799555   -4.9634625593   -1.6604579993
S       -0.6019495687   -2.3476083764    0.4100553031
H       -7.3531323023   -2.1943041516    0.5647672831
H       -2.4878732765    1.8869109090    0.0425455714
H       -0.8608760085    1.9681142098   -0.6625503744
H       -2.2296259214    1.5062887948   -1.6731619558
H      -10.5082392214   -0.3991805401   -0.6525000599
H       -9.7204833140   -1.8299696744   -1.3558966445
H      -10.0953125143   -1.7805624807    0.3810235443
H       -8.8928978243    1.1793421018   -1.3168535031
H       -8.4469512667    1.4716329194    0.3805688293
H       -7.1970357778    1.0887025352   -0.8192356191
H       -0.1193091773   -5.2139052770   -3.3217740717
H       -1.8341508504   -5.6046504518   -3.5765106847
H       -0.7898413521   -6.7157851980   -2.6508512184
H        0.8218034391    1.1272322826    0.2731912768
H        1.2724294019   -0.2161968478    1.3270716283
H       -6.4065805491   -0.9026141711   -2.0233420765
H       -6.7132474256   -2.5969624235   -1.7466493186
H       -3.5435094712   -5.2140737244    0.8638451366
H       -1.8811510123   -4.6789582334    0.9487445848
H       -3.3112122057   -5.6069030897   -1.5914128763
H       -2.1637785649   -6.5593303876   -0.6318037556
H        1.3776659925   -0.4402033530   -1.5369670683
45   

C       -2.7104568769   -1.0484573465   -0.4347690200
C       -1.6316843890   -0.0549126629   -0.3372385072
C       -0.4514886143   -0.6305997110    0.0984818615
C       -4.0903568510   -0.8341957372   -0.8610886562
C       -2.3088272477   -2.2981397081   -0.0755780443
C       -4.5139070982   -3.1507796823   -0.5069202952
C       -7.2821257198   -1.4247477250   -0.2036384064
C       -8.3521866338   -0.5912627550   -0.2664945321
C       -1.8180514242    1.4024189560   -0.6882179583
C       -9.7753604488   -1.0971456640   -0.3293707029
C       -8.1215160818    0.8359864702   -0.7029111340
C       -0.9683642676   -5.6645355548   -2.8986291207
C        0.8753524186    0.0331149049    0.3467684590
C       -6.3444621395   -1.7197311094   -1.3495399044
C       -2.7572460432   -4.7317763858    0.2437255162
C       -2.4118227559   -5.5604449971   -0.9949490138
N       -4.9775132108   -1.8947491111   -0.8661766659
N       -3.1975402537   -3.3792045569   -0.1094010666
O       -4.4605386424    0.2707525168   -1.2344505132
O       -5.2895935374   -4.0996477946   -0.5363593662
O        1.8007726118   -0.4348010422   -0.6325289791
O       -1.3091855566   -4.9722282523   -1.6944988001
S       -0.6155370440   -2.3600223159    0.3989398949
H       -7.4298544488   -2.3045646478    0.4132718504
H       -2.5268183690    1.8621451701    0.0071754041
H       -0.8818963795    1.9616600217   -0.6510634023
H       -2.2177766112    1.4930588280   -1.7025898900
H      -10.4826448471   -0.2688518782   -0.4355238120
H       -9.8948837488   -1.7722737925   -1.1820322535
H      -10.0182087258   -1.6426813797    0.5873151961
H       -8.7824351411    1.0923847952   -1.5368332981
H       -8.3268290702    1.5150054979    0.1295933829
H       -7.0883569422    0.9970032608   -1.0250616578
H       -0.0786556721   -5.2097092113   -3.3445932508
H       -1.7897494788   -5.6031323093   -3.6195119467
H       -0.7523560353   -6.7172304950   -2.6896711102
H        0.7961272342    1.1209048627    0.2888200826
H        1.2352474382   -0.2216604514    1.3485842356
H       -6.3988478356   -0.9263272269   -2.1029497743
H       -6.6822991014   -2.6273932865   -1.8619969069
H       -3.5495306167   -5.2408040401    0.8025483485
H       -1.8904040688   -4.6994722014    0.9091084922
H       -3.2864473660   -5.6240245497   -1.6510997694
H       -2.1464415062   -6.5751439878   -0.6814391421
H        1.3862853446   -0.4415345799   -1.5138272081
45   

C       -2.7442718248   -1.0450153080   -0.4306134266
C       -1.6735323688   -0.0445507005   -0.3154755110
C       -0.5006771958   -0.6103263676    0.1519096310
C       -4.1136257131   -0.8421586070   -0.8943597536
C       -2.3450127495   -2.2893764783   -0.0516391919
C       -4.5359158296   -3.1562529976   -0.5261919917
C       -7.3268703128   -1.5100313932   -0.2841902109
C       -8.3277996070   -0.6008733767   -0.2881335321
C       -1.8613979393    1.4096692488   -0.6787183524
C       -9.7770317908   -0.9995108564   -0.1330395164
C       -8.0562999683    0.7997759963   -0.7809507385
C       -0.9333306631   -5.6570703623   -2.8309633506
C        0.8167148441    0.0622732044    0.4257247703
C       -6.3571727435   -1.7427652317   -1.4155981647
C       -2.7876777685   -4.7230835947    0.2725059148
C       -2.4114275160   -5.5564916450   -0.9539117919
N       -4.9981057732   -1.9052220467   -0.9045801789
N       -3.2274440163   -3.3750719322   -0.0979773808
O       -4.4743082967    0.2548202828   -1.2985320448
O       -5.3052964658   -4.1098767242   -0.5678791838
O        1.7673126040   -0.4094221590   -0.5272741170
O       -1.2977522246   -4.9654929704   -1.6333665837
S       -0.6628478804   -2.3382154032    0.4625039133
H       -7.5214316941   -2.4140148340    0.2829148432
H       -2.6038085771    1.8632092794   -0.0150662917
H       -0.9345781844    1.9803900531   -0.6032953018
H       -2.2197136695    1.4925613366   -1.7091182993
H      -10.4254037321   -0.1179479410   -0.1254391089
H      -10.0768261505   -1.6476885604   -0.9619262432
H       -9.9187926420   -1.5413911655    0.8067968338
H       -8.5969193392    0.9810449160   -1.7151206218
H       -8.3910898574    1.5267685590   -0.0351786117
H       -6.9900690702    0.9669280950   -0.9564056758
H       -0.0391561294   -5.1975159908   -3.2629253947
H       -1.7431680816   -5.6013278770   -3.5652564399
H       -0.7146465663   -6.7082186217   -2.6171035233
H        0.7340202392    1.1490877655    0.3561823251
H        1.1540081251   -0.1819488750    1.4379744483
H       -6.4133474547   -0.9295937829   -2.1472984456
H       -6.6593570800   -2.6425452475   -1.9630753997
H       -3.5890133583   -5.2332152603    0.8172245026
H       -1.9353569761   -4.6822104706    0.9559337051
H       -3.2717361390   -5.6289119761   -1.6278374112
H       -2.1466497202   -6.5678196216   -0.6292484226
H        1.3742888454   -0.4243991191   -1.4182605903
45   

C       -2.7081053730   -1.1038400283   -0.5708652829
C       -1.6417109616   -0.1034492658   -0.4203795286
C       -0.4801142529   -0.6723211928    0.0706509698
C       -4.0663946639   -0.8978096847   -1.0647015083
C       -2.3167740492   -2.3512631533   -0.1935404957
C       -4.4951247643   -3.2154863274   -0.7271565921
C       -7.2849762164   -1.6028919288   -0.5073886239
C       -8.2142093244   -0.6281207268   -0.4328694689
C       -1.8215098967    1.3538434187   -0.7752928338
C       -9.6361699694   -0.9280679397   -0.0197569185
C       -7.9076595329    0.7461446302   -0.9755090181
C       -0.8510907212   -5.6920545347   -2.9762446621
C        0.8289411692   -0.0005347987    0.3833619358
C       -6.3013169311   -1.7928653341   -1.6318915110
C       -2.7651157943   -4.7880182268    0.0991129937
C       -2.3628201770   -5.6118014995   -1.1254363569
N       -4.9497223652   -1.9611649621   -1.1035395123
N       -3.1968052138   -3.4372033783   -0.2705317628
O       -4.4185237901    0.2025273830   -1.4674931622
O       -5.2623674282   -4.1692887873   -0.7959770151
O        1.8009362275   -0.4540934780   -0.5567350094
O       -1.2353036220   -5.0151379329   -1.7764871037
S       -0.6475767989   -2.4031915512    0.3610225104
H       -7.5035214909   -2.5165036060    0.0350767646
H       -2.5759222115    1.8027566993   -0.1221151926
H       -0.8955633468    1.9227428716   -0.6780803541
H       -2.1600388002    1.4456015402   -1.8116040226
H      -10.1883842033   -0.0060296231    0.1851233767
H      -10.1487234279   -1.4722184285   -0.8186583118
H       -9.6452824172   -1.5420294661    0.8859493653
H       -8.1182301107    0.7815778440   -2.0486277183
H       -8.5179411669    1.5037976215   -0.4752378631
H       -6.8568520243    1.0012595465   -0.8112802605
H        0.0501638655   -5.2274902708   -3.3876247539
H       -1.6485928935   -5.6271490764   -3.7231884788
H       -0.6361404303   -6.7457859469   -2.7715330470
H        0.7439586910    1.0870358723    0.3296210498
H        1.1454473861   -0.2599896297    1.3985333937
H       -6.3515867054   -0.9571113831   -2.3379693661
H       -6.5879396953   -2.6778986834   -2.2108748219
H       -3.5780043462   -5.3020966359    0.6225965552
H       -1.9275481892   -4.7526542912    0.8008309889
H       -3.2087682498   -5.6792248264   -1.8178165647
H       -2.1044477904   -6.6255422143   -0.8031799942
H        1.4262712813   -0.4577198344   -1.4557107593
45   

C       -2.7143945828   -1.1471648170   -0.6605441669
C       -1.6589898907   -0.1404843261   -0.4776799760
C       -0.5063719244   -0.7043238306    0.0394769218
C       -4.0616626568   -0.9471483209   -1.1859039655
C       -2.3241190741   -2.3940943821   -0.2805951583
C       -4.4820644156   -3.2700190676   -0.8750353524
C       -7.2827707336   -1.7144298619   -0.6877526828
C       -8.1476402178   -0.6959022256   -0.5233769872
C       -1.8384453344    1.3175093926   -0.8299954963
C       -9.4861390029   -0.9135484976    0.1424298470
C       -7.9008521543    0.6381743403   -1.1836142401
C       -0.7784095209   -5.7055182861   -3.0506935322
C        0.7894939076   -0.0251129008    0.3887166693
C       -6.2804994148   -1.8518735650   -1.8024154655
C       -2.7636609994   -4.8351510595   -0.0117851062
C       -2.3271408184   -5.6506357952   -1.2300251869
N       -4.9364274204   -2.0162467274   -1.2534093387
N       -3.1945156443   -3.4854070520   -0.3860381312
O       -4.4115448128    0.1538746956   -1.5886123906
O       -5.2401099793   -4.2288907589   -0.9703522790
O        1.7851418897   -0.4577333486   -0.5363510281
O       -1.1885223063   -5.0434329568   -1.8512849153
S       -0.6691181510   -2.4379190851    0.3157733283
H       -7.4835174508   -2.6303944609   -0.1424268532
H       -2.6066074380    1.7606623182   -0.1890262461
H       -0.9165894820    1.8895663304   -0.7138825286
H       -2.1580305822    1.4123033614   -1.8720225280
H       -9.4776381731   -0.4780483273    1.1460072890
H      -10.2813531473   -0.4389146328   -0.4404933730
H       -9.7140897143   -1.9806881481    0.2255657239
H       -8.1135718270    0.5771396083   -2.2549454171
H       -8.5461881571    1.4056851596   -0.7457535295
H       -6.8631829490    0.9523281274   -1.0403670924
H        0.1277914656   -5.2318845173   -3.4402667022
H       -1.5622101997   -5.6369000755   -3.8116867010
H       -0.5616664750   -6.7601993820   -2.8529259097
H        0.6953616211    1.0622824091    0.3471709771
H        1.0868457526   -0.2947915159    1.4070088487
H       -6.3285452526   -0.9986367242   -2.4866709492
H       -6.5426270613   -2.7240629645   -2.4116965431
H       -3.5858238792   -5.3563640349    0.4897050352
H       -1.9433712322   -4.7979593007    0.7099596152
H       -3.1560902700   -5.7203852861   -1.9424548790
H       -2.0696357846   -6.6641233532   -0.9063379968
H        1.4288810151   -0.4550601454   -1.4427780593
45   

C       -2.7636110054   -1.1332152240   -0.6899372359
C       -1.7149827261   -0.1237418172   -0.4845715468
C       -0.5802496643   -0.6805446771    0.0777987800
C       -4.0913269156   -0.9407544022   -1.2651646565
C       -2.3869817169   -2.3747659879   -0.2803359932
C       -4.5258833597   -3.2573944302   -0.9316240919
C       -7.3275325407   -1.7459217937   -0.8162425047
C       -8.1083718024   -0.6834408693   -0.5526333103
C       -1.8847127494    1.3302103109   -0.8580089441
C       -9.3150390816   -0.8215869331    0.3455696523
C       -7.8784864550    0.6453547185   -1.2301240669
C       -0.7604532490   -5.7107443982   -2.9649030782
C        0.7035549324    0.0031469968    0.4613284348
C       -6.3021051296   -1.8484510757   -1.9141510673
C       -2.8360436998   -4.8120946583    0.0038661440
C       -2.3611344738   -5.6414450700   -1.1902798225
N       -4.9681082710   -2.0080510278   -1.3382618562
N       -3.2541871897   -3.4670706999   -0.4003197456
O       -4.4202641552    0.1514727926   -1.7070791387
O       -5.2806262204   -4.2175629956   -1.0396716359
O        1.7293516592   -0.4421934695   -0.4238704908
O       -1.2032962956   -5.0408029424   -1.7816634900
S       -0.7526989123   -2.4104452257    0.3712175541
H       -7.5411565679   -2.6719531644   -0.2932020150
H       -2.6866058935    1.7739813479   -0.2602057994
H       -0.9737143201    1.9094465435   -0.6998286348
H       -2.1524668363    1.4140642596   -1.9154783114
H       -9.0884067729   -0.4186804165    1.3371960277
H      -10.1642811460   -0.2720937451   -0.0719830725
H       -9.6074246137   -1.8708426829    0.4517926819
H       -8.1732105706    0.5910079043   -2.2821287650
H       -8.4687018049    1.4290849574   -0.7457725148
H       -6.8267217506    0.9354844199   -1.1649600956
H        0.1561536447   -5.2395868855   -3.3325041568
H       -1.5229947540   -5.6472588348   -3.7476358101
H       -0.5493833698   -6.7640369153   -2.7540912420
H        0.6119464282    1.0898848157    0.4017929215
H        0.9663468532   -0.2527779982    1.4925912665
H       -6.3482594808   -0.9826234741   -2.5824505104
H       -6.5396198954   -2.7122419238   -2.5451125242
H       -3.6739338870   -5.3274136337    0.4850049986
H       -2.0391403732   -4.7661965661    0.7508720295
H       -3.1671054095   -5.7196184304   -1.9277723278
H       -2.1139423312   -6.6510153801   -0.8469634909
H        1.4038795954   -0.4509030942   -1.3417795758
45   

C       -2.7799924418   -1.1833824168   -0.7853643080
C       -1.7499499708   -0.1633658105   -0.5418419427
C       -0.6257532924   -0.7112980167    0.0495942913
C       -4.0907720510   -1.0021983597   -1.4011551681
C       -2.4022044696   -2.4231310887   -0.3719446164
C       -4.5149148192   -3.3224953616   -1.0836995084
C       -7.3203996105   -1.8454659142   -0.9846058824
C       -8.0217109775   -0.7610218053   -0.6115480515
C       -1.9285086108    1.2920510624   -0.9054716460
C       -9.0249901880   -0.8520178598    0.5144042567
C       -7.8546991142    0.5666476723   -1.3098963690
C       -0.6659243627   -5.7201040826   -3.0297953734
C        0.6382608169   -0.0159869910    0.4755865697
C       -6.2898281333   -1.9207724633   -2.0803237316
C       -2.8337818033   -4.8663540623   -0.1147663002
C       -2.3162864547   -5.6823475639   -1.3002055203
N       -4.9589148427   -2.0750764269   -1.4944705515
N       -3.2544700449   -3.5233343879   -0.5227489609
O       -4.4103300218    0.0849461120   -1.8615894676
O       -5.2582128165   -4.2888011931   -1.2139124928
O        1.6928718615   -0.4381850265   -0.3867358167
O       -1.1483053959   -5.0653645236   -1.8535816670
S       -0.7871251835   -2.4450408515    0.3265207351
H       -7.5205202862   -2.7793425245   -0.4702037878
H       -2.7666346224    1.7133580588   -0.3420555032
H       -1.0379615680    1.8861685787   -0.6949176721
H       -2.1466312201    1.3845097126   -1.9735759975
H       -8.5723151117   -0.4967602765    1.4449845748
H       -9.9029833478   -0.2375425425    0.2928753215
H       -9.3598607254   -1.8839368853    0.6583758268
H       -8.2894787601    0.5232497344   -2.3126070410
H       -8.3568511884    1.3606743625   -0.7491443228
H       -6.7993989763    0.8376131022   -1.3868112315
H        0.2550338312   -5.2357230615   -3.3681736054
H       -1.4074843708   -5.6581797110   -3.8325526781
H       -0.4489224787   -6.7727806044   -2.8219966217
H        0.5345124805    1.0701228830    0.4256187064
H        0.8765695093   -0.2804702792    1.5106323783
H       -6.3420504573   -1.0433219948   -2.7329233919
H       -6.5142599712   -2.7766180451   -2.7267109733
H       -3.6792996378   -5.3937436665    0.3391757415
H       -2.0589156697   -4.8168170875    0.6548602387
H       -3.0999864798   -5.7634541759   -2.0610241617
H       -2.0683401375   -6.6916804577   -0.9567658785
H        1.3920454330   -0.4402667069   -1.3130679489
