24   

C       -1.2781325725   -1.2659339822    2.3558990333
C       -3.7704654525    0.3022871396    3.2429989669
C       -4.9904586694    0.8868078555    1.2460867111
C       -4.9035448621    0.6000851181    4.0100537270
C       -6.1162768103    1.1835531451    2.0224738623
C       -3.7937011450    0.4228059300    1.8364152359
C       -6.0854771339    1.0382900871    3.4100905429
C       -2.6854717471    0.1432730852    0.9320187222
C       -0.4559275255   -0.7175781531    0.1276010639
C       -1.5263417131   -0.5549163862    1.1402471041
C       -1.0324562774    0.8666826942   -3.0389174623
N       -1.0334143544   -1.8567800930    3.3295638022
N       -0.3204903397   -0.2232677300   -1.0864967016
O       -1.2756949750    0.6523589368   -1.6485701012
Cl      -7.4929706217    1.4058282280    4.3761370961
H       -2.8886312143    0.0053568629    3.7917383997
H       -5.0602633292    1.0115532185    0.1713311549
H       -4.8640939527    0.4952631056    5.0881816298
H       -7.0266494715    1.5292510751    1.5467673332
H       -2.8809220116    0.4903962228   -0.0686529335
H        0.3705344050   -1.3538498012    0.4251932045
H       -1.8512176582    1.4481161098   -3.4719861099
H       -0.9637276961   -0.0906583480   -3.5652391142
H       -0.0962263849    1.4162946967   -3.1748879002
24   

C       -1.4370494009   -1.3674273918    2.3135917415
C       -3.6799366380    0.5025455156    3.2273299337
C       -5.0665872739    0.7147059799    1.2621347233
C       -4.7930806007    0.7732108227    4.0322175053
C       -6.1729451111    0.9859039754    2.0754934087
C       -3.7981109251    0.4577746500    1.8240668906
C       -6.0477932356    1.0141371914    3.4665687081
C       -2.7027396075    0.1672812213    0.9032968785
C       -0.5344303057   -0.8381990599    0.1035015803
C       -1.6012822411   -0.6175782986    1.1064087115
C       -0.9013561252    0.9824949367   -2.9645163037
N       -1.2691792171   -1.9827290957    3.2881996505
N       -0.3377574624   -0.3005031699   -1.0828515158
O       -1.1973900234    0.6953249817   -1.5976865792
Cl      -7.4312338106    1.3494846540    4.4780148532
H       -2.7288251371    0.3545974329    3.7228717247
H       -5.2027363601    0.6943093657    0.1867023188
H       -4.6827223679    0.8004718807    5.1101123282
H       -7.1416148008    1.1739988045    1.6273369839
H       -2.9001453101    0.5056847973   -0.1014660536
H        0.2248735708   -1.5604324425    0.3830328161
H       -1.6611153713    1.6539551506   -3.3742040199
H       -0.8919513014    0.0601601646   -3.5540327088
H        0.0776621216    1.4647862939   -3.0420552299
24   

C       -1.5991346390   -1.4130346979    2.2555269563
C       -3.6268553138    0.6896168860    3.1728114582
C       -5.1322617909    0.5678907268    1.2889344638
C       -4.7156456507    0.9246405998    4.0206967268
C       -6.2155478496    0.8044206772    2.1435724000
C       -3.8174139897    0.5104993856    1.7909041406
C       -6.0178716270    0.9845270009    3.5157023505
C       -2.7281872320    0.2210183677    0.8545898188
C       -0.6435336693   -0.9400535073    0.0486615377
C       -1.6954988140   -0.6509689387    1.0481759948
C       -0.7882329011    1.0453814801   -2.9354859557
N       -1.4895803553   -2.0363188723    3.2332359772
N       -0.3925518841   -0.3866132291   -1.1196731251
O       -1.1579385351    0.6991859813   -1.6006929099
Cl      -7.3721614257    1.2766802979    4.5786807410
H       -2.6321801612    0.6612554929    3.6027768242
H       -5.3177565394    0.4207909263    0.2309040795
H       -4.5506787869    1.0609523491    5.0831813499
H       -7.2220871738    0.8447636863    1.7438791292
H       -2.9196164039    0.5711511999   -0.1482333272
H        0.0483628093   -1.7316675747    0.3148026787
H       -1.4819896213    1.7935391761   -3.3290289519
H       -0.8201337558    0.1616275021   -3.5806518858
H        0.2245827894    1.4591386821   -2.9480118801
24   

C       -1.7518900670   -1.4519595156    2.1933339789
C       -3.5937309471    0.8741194628    3.1105012008
C       -5.1726508497    0.4069260850    1.3454396928
C       -4.6544892530    1.0786817725    4.0006076753
C       -6.2292762772    0.6134743061    2.2405873411
C       -3.8387049712    0.5525955059    1.7658020581
C       -5.9805551283    0.9541267204    3.5741054867
C       -2.7520809865    0.2687134559    0.8132435211
C       -0.7571610846   -1.0257607513   -0.0111798212
C       -1.7896336607   -0.6794248021    0.9890873290
C       -0.6707241785    1.1059916228   -2.8953725707
N       -1.6921776419   -2.0864185223    3.1680858996
N       -0.4551407330   -0.4583210118   -1.1602568981
O       -1.1274396205    0.7024052944   -1.6043907195
Cl      -7.3010481765    1.2098790865    4.6877786979
H       -2.5748347939    0.9683265320    3.4697472698
H       -5.3909424852    0.1284958543    0.3206155930
H       -4.4496262905    1.3308631520    5.0345346578
H       -7.2535814968    0.5035583317    1.9041733094
H       -2.9304432521    0.6459110634   -0.1827619447
H       -0.1317638898   -1.8762349951    0.2372135535
H       -1.2939912108    1.9230886839   -3.2692490550
H       -0.7284133872    0.2687172797   -3.5981185811
H        0.3663350405    1.4496752536   -2.8352065863
24   

C       -1.9064543019   -1.5585772933    2.0808455436
C       -3.5779649139    1.0390691656    3.0225240422
C       -5.1808993591    0.2010525089    1.4263857924
C       -4.6077799310    1.2362320651    3.9500054246
C       -6.2077313006    0.3995250902    2.3573966554
C       -3.8562014732    0.5427831302    1.7410110205
C       -5.9319119196    0.9239248260    3.6246645484
C       -2.7725416628    0.2719534532    0.7684737499
C       -0.8528971772   -1.1059751477   -0.0954966877
C       -1.8775702890   -0.7419811384    0.9056471864
C       -0.5605138023    1.1794748821   -2.8450274862
N       -1.9046074342   -2.2349446689    3.0288238302
N       -0.4972882053   -0.5024190268   -1.2101593222
O       -1.0895768668    0.7193029873   -1.6015149168
Cl      -7.2150539934    1.1732662059    4.7825853806
H       -2.5558530694    1.2725823768    3.2994455843
H       -5.4141080345   -0.2211788207    0.4554372924
H       -4.3803653340    1.6287873985    4.9342088821
H       -7.2284537069    0.1405190267    2.1015272424
H       -2.9162742090    0.7251297153   -0.2013494730
H       -0.2861364821   -2.0050607702    0.1201218078
H       -1.1225781093    2.0538201998   -3.1848880144
H       -0.6364365876    0.3945628207   -3.6041590198
H        0.4907036320    1.4583239649   -2.7247650969
24   

C       -2.1254355933   -1.7787413542    1.9040758224
C       -3.6097717198    1.2638003295    2.9019942895
C       -5.1495685352   -0.0083291454    1.5500893830
C       -4.6310384565    1.5135369766    3.8265902323
C       -6.1683166623    0.2432857967    2.4769985170
C       -3.8589542731    0.5002980384    1.7545949253
C       -5.9190986196    1.0069414503    3.6225058834
C       -2.7809228899    0.2383431729    0.7674248840
C       -0.8697146988   -1.1465563665   -0.1158554595
C       -1.9584923745   -0.8398663736    0.8366322714
C       -0.4845340324    1.2011771712   -2.8020511359
N       -2.2379956565   -2.5588347762    2.7613363924
N       -0.4638322398   -0.5048651806   -1.1915559235
O       -1.0908870312    0.6869360324   -1.6165699635
Cl      -7.1914175613    1.3206555523    4.7767143945
H       -2.6165053184    1.6608555142    3.0790604827
H       -5.3598256840   -0.6059865151    0.6702101234
H       -4.4262995133    2.1025341173    4.7129396964
H       -7.1614643743   -0.1577130019    2.3118088478
H       -2.6925991879    0.9817209297   -0.0099485399
H       -0.3055667670   -2.0481228169    0.0962717174
H       -0.9863670780    2.1251763127   -3.1026192554
H       -0.5678608831    0.4728127137   -3.6145549792
H        0.5734454384    1.4155948539   -2.6221528927
24   

C       -2.3063127002   -1.9825936704    1.6969339384
C       -3.6717560356    1.4761754642    2.7343938901
C       -5.0763208709   -0.1945997034    1.7163771697
C       -4.6955009381    1.7836852221    3.6387566425
C       -6.0987420891    0.1147398995    2.6213241554
C       -3.8383306949    0.4617330580    1.7819738871
C       -5.9162889838    1.1028817496    3.5939845493
C       -2.7806753832    0.1955036753    0.7805720432
C       -0.8901397071   -1.1814814962   -0.1501974543
C       -2.0252426290   -0.9344989748    0.7637023620
C       -0.4536917430    1.2974081571   -2.7065792168
N       -2.5170804139   -2.8521919698    2.4422372067
N       -0.4522225207   -0.4806238431   -1.1750463691
O       -1.1127326588    0.6970021043   -1.5916069767
Cl      -7.1909645591    1.4861306775    4.7243300680
H       -2.7365068474    2.0225701740    2.7816065315
H       -5.2405969972   -0.9579875462    0.9639049145
H       -4.5464905074    2.5572025517    4.3830342190
H       -7.0433786418   -0.4140361525    2.5709426273
H       -2.4321761107    1.0721404244    0.2547344734
H       -0.3299633574   -2.0915039638    0.0344537275
H       -0.9050216111    2.2697444786   -2.9228688297
H       -0.5509425021    0.6571378936   -3.5885384556
H        0.6087550400    1.4428807463   -2.4870862954
24   

C       -2.4040600929   -2.0905856300    1.5690698971
C       -3.7329980712    1.6025720920    2.5981895187
C       -4.9901181546   -0.3179667533    1.8742243134
C       -4.7551948084    1.9314187878    3.4966941641
C       -6.0107875533    0.0125298128    2.7735570423
C       -3.8186970429    0.4536530014    1.7981605649
C       -5.9006007687    1.1364968936    3.5973309753
C       -2.7702458919    0.1739658063    0.8026811958
C       -0.9662605615   -1.2431528631   -0.2355169773
C       -2.0825399778   -0.9979280298    0.7024905639
C       -0.3866811442    1.3836336012   -2.6097751956
N       -2.6545763656   -2.9976029989    2.2551701659
N       -0.4946392424   -0.5007030422   -1.2152857806
O       -1.0914580249    0.7353606285   -1.5509485813
Cl      -7.1731995210    1.5466620964    4.7205338756
H       -2.8596606936    2.2416824272    2.5326980154
H       -5.1095469977   -1.1859581738    1.2351589342
H       -4.6640970263    2.8115981128    4.1223904650
H       -6.8989151664   -0.6057361770    2.8329388868
H       -2.3566163404    1.0568516916    0.3384447645
H       -0.4541784862   -2.1915740689   -0.1157119524
H       -0.7796691594    2.3943713015   -2.7507931603
H       -0.5100700689    0.8218863262   -3.5405840512
H        0.6798110888    1.4502096699   -2.3723448443
24   

C       -2.4674506708   -2.1954160073    1.4683326904
C       -3.8029001553    1.6722982764    2.4542647416
C       -4.9153170383   -0.4207628781    2.0429124787
C       -4.8094847328    2.0285668718    3.3595846801
C       -5.9198482282   -0.0618972345    2.9496683027
C       -3.8191535004    0.4288226513    1.8019796723
C       -5.8739384505    1.1625572083    3.6207861147
C       -2.7753754639    0.1255000407    0.8199558773
C       -1.0705513136   -1.3174801230   -0.3452194807
C       -2.1478895431   -1.0738024070    0.6391497175
C       -0.3382550488    1.4421319441   -2.5168284998
N       -2.7180200677   -3.1270496762    2.1207361264
N       -0.5806528298   -0.5442231231   -1.2919585018
O       -1.1077109349    0.7433205016   -1.5381563070
Cl      -7.1273944866    1.6073714965    4.7522886624
H       -2.9935140450    2.3694379394    2.2688555494
H       -5.0068949894   -1.3671526827    1.5225730141
H       -4.7687184037    2.9859251901    3.8658964786
H       -6.7475301954   -0.7374337038    3.1319732609
H       -2.3362516927    1.0043680147    0.3731552702
H       -0.6050009100   -2.2957187769   -0.2951832165
H       -0.6819269469    2.4779514867   -2.5867017104
H       -0.4523113163    0.9636083668   -3.4941420747
H        0.7209923240    1.4404095067   -2.2406451339
24   

C       -2.2733664547   -2.2025439325    1.9976956742
C       -3.9751266546    1.6758229378    2.9373678616
C       -4.7587528948   -0.4140081401    2.0437311949
C       -5.2721269481    1.9787935571    3.3673287316
C       -6.0545339144   -0.1074420637    2.4770082291
C       -3.6820258164    0.4639956177    2.2867020419
C       -6.3232989045    1.0877281337    3.1465556024
C       -2.3100903529    0.2317137599    1.8448447027
C       -0.2624556537   -1.0790282030    1.1797552859
C       -1.6589286615   -0.9563694792    1.6571434247
C        1.3756146134    2.0112717726    0.3903631927
N       -2.7484739800   -3.2341064155    2.2561535749
N        0.5913892795   -0.1690783990    0.7575975440
O        0.2365214985    1.1950065237    0.6634033957
Cl      -7.9409373318    1.4658743516    3.6846553886
H       -3.1855955983    2.3944256683    3.1264775780
H       -4.6279528261   -1.3376238820    1.4949520922
H       -5.4689823524    2.9142079029    3.8780470323
H       -6.8641901189   -0.8020090400    2.2851886849
H       -1.7247145983    1.1367213776    1.8119100625
H        0.1377036577   -2.0870048792    1.1664373813
H        1.0986008570    3.0670591669    0.4575110252
H        1.7503332388    1.8058983428   -0.6168535385
H        2.1712754767    1.8094512954    1.1146126408
24   

C       -2.2782472698   -2.2651927964    1.8152362924
C       -3.9961507245    1.7217360576    2.7601748793
C       -4.7500853089   -0.5027056508    2.2505015989
C       -5.2772663575    2.0542220296    3.2139077299
C       -6.0301121666   -0.1642024634    2.7075638564
C       -3.6928792103    0.4336197520    2.2785337927
C       -6.3060764190    1.1132685655    3.1958310182
C       -2.3293197772    0.1864521292    1.8271843570
C       -0.2975235021   -1.0806368666    1.0395929574
C       -1.6857161834   -0.9904576275    1.5528313242
C        1.4136248945    2.0354501106    0.5651792121
N       -2.7204050438   -3.3251764251    2.0102039388
N        0.5684311685   -0.1497928961    0.6924480858
O        0.2520343958    1.2256115059    0.7470292824
Cl      -7.9050728180    1.5279494246    3.7619990566
H       -3.2268161811    2.4849487228    2.7944499179
H       -4.6440549089   -1.5015434018    1.8547572923
H       -5.4786293422    3.0523360608    3.5851868058
H       -6.8237640204   -0.9017854295    2.6762843618
H       -1.7504789132    1.0933484283    1.7792780379
H        0.0892599467   -2.0874531630    0.9246239711
H        1.1607200721    3.0866404903    0.7295382750
H        1.7966595020    1.9175514655   -0.4528940388
H        2.1943837091    1.7459964501    1.2757313979
24   

C       -2.3531074691   -2.2647335906    1.4858522478
C       -4.0373094495    1.7617564662    2.5824471474
C       -4.7032566264   -0.5445049875    2.4588031237
C       -5.3148300111    2.1102322865    3.0331908390
C       -5.9805343183   -0.1874772012    2.9107331602
C       -3.6934809692    0.4284330712    2.2824798444
C       -6.2995221978    1.1386859813    3.2019287295
C       -2.3348400776    0.1771583629    1.8211768063
C       -0.3013077786   -1.0635511894    1.0022402499
C       -1.7116454066   -0.9874404719    1.4588991893
C        1.5224258837    2.0303930530    0.8201366190
N       -2.8188353235   -3.3327162649    1.4860266482
N        0.6189148818   -0.1357264035    0.8273657207
O        0.3667872449    1.2318324575    1.0732178801
Cl      -7.8947674847    1.5722319313    3.7645485501
H       -3.3050316015    2.5529699262    2.4669006560
H       -4.5754186217   -1.5965051068    2.2663380634
H       -5.5477909389    3.1451325431    3.2553622384
H       -6.7376020330   -0.9528107171    3.0376425244
H       -1.7596484887    1.0851745187    1.7755304243
H        0.0535903554   -2.0602179815    0.7627190342
H        1.2987468864    3.0801713770    1.0297293299
H        1.8242086102    1.9352485445   -0.2274406095
H        2.3499506067    1.7104340160    1.4608115585
24   

C       -2.4824314865   -2.1770124262    1.1737179852
C       -4.1145119118    1.7727755024    2.3875968964
C       -4.6148144859   -0.5605952122    2.6728124839
C       -5.3951953349    2.1051082236    2.8426739037
C       -5.8960279089   -0.2215621609    3.1261277168
C       -3.6926259620    0.4337010917    2.2776639051
C       -6.3001580051    1.1109807904    3.2127177311
C       -2.3392001839    0.1908555698    1.7946307267
C       -0.3269549073   -1.0677015635    0.9458628489
C       -1.7482016734   -0.9634153387    1.3553504108
C        1.5909215540    1.9578495680    1.1246255917
N       -3.0384635295   -3.1878695618    1.0122444775
N        0.6528319897   -0.1863930404    0.9572302424
O        0.4713229331    1.1292448649    1.4378699789
Cl      -7.8985449787    1.5254540008    3.7807563508
H       -3.4449635367    2.5788366340    2.1091855772
H       -4.3805184909   -1.6144634993    2.6784925641
H       -5.6934773934    3.1448636082    2.9102224490
H       -6.5851750032   -1.0040213338    3.4223099288
H       -1.7675646769    1.1008327997    1.7234543809
H       -0.0243049655   -2.0375572424    0.5660205267
H        1.3724279180    2.9936413096    1.3991610698
H        1.8072132290    1.9160570634    0.0523693300
H        2.4721225726    1.6219582790    1.6793716581
24   

C       -2.5851630903   -2.0890486221    1.0446094685
C       -4.2092354218    1.7544030793    2.2265763630
C       -4.5040965444   -0.5452241232    2.8624679702
C       -5.4922899286    2.0505570104    2.7008482209
C       -5.7877706191   -0.2447408232    3.3343405590
C       -3.6928330396    0.4471586397    2.2741271506
C       -6.2962753238    1.0529110687    3.2539990217
C       -2.3362554356    0.2226941760    1.7834328810
C       -0.3847234659   -1.0485565262    0.8207123686
C       -1.7901876614   -0.9211735942    1.2695007613
C        1.6517199433    1.8665404279    1.2812204847
N       -3.2022739323   -3.0590753251    0.8578698589
N        0.6266517410   -0.2076484092    0.8931185195
O        0.4974071000    1.0575501114    1.5080608326
Cl      -7.8975729607    1.4229351410    3.8441136433
H       -3.6148194482    2.5570986496    1.8048439049
H       -4.1562846550   -1.5617429605    2.9930656517
H       -5.8716251944    3.0640045894    2.6407236115
H       -6.3952589036   -1.0264625679    3.7755075849
H       -1.7675645023    1.1348667906    1.6972048655
H       -0.1291678692   -1.9936908042    0.3540925406
H        1.4715129024    2.8798860223    1.6507965527
H        1.8770966244    1.9170472244    0.2111773578
H        2.5134730030    1.4448294918    1.8071748253
24   

C       -2.6698374690   -1.9958177557    0.9641828162
C       -4.2958687709    1.7215020498    2.0808166774
C       -4.3911863389   -0.4900534415    3.0226822231
C       -5.5808264326    1.9845237775    2.5701835990
C       -5.6765062487   -0.2242303663    3.5098471050
C       -3.6882884040    0.4696779680    2.2700833705
C       -6.2858994012    1.0123745902    3.2836440821
C       -2.3200100562    0.2621683884    1.7899872250
C       -0.4412418512   -1.0100359652    0.6954831480
C       -1.8252607721   -0.8645447917    1.1978699391
C        1.7263651453    1.7660705274    1.3752797521
N       -3.3322246120   -2.9347074288    0.7742132235
N        0.5987060039   -0.2085598574    0.7974822026
O        0.5243351354    1.0080223203    1.5120146674
Cl      -7.8896797088    1.3411424443    3.8911887635
H       -3.7727176697    2.4994553834    1.5362182610
H       -3.9453211239   -1.4520755474    3.2474208271
H       -6.0387786281    2.9515319799    2.3977884269
H       -6.2063247709   -0.9827810944    4.0742405937
H       -1.7477577681    1.1739634703    1.7124391207
H       -0.2332493706   -1.9300184970    0.1601676360
H        1.5916778087    2.7560914759    1.8198398367
H        1.9821561425    1.8867325355    0.3177843300
H        2.5498681132    1.2570881965    1.8851001436
24   

C       -2.7297967944   -1.8867782595    0.8732234099
C       -4.3885224948    1.6604323728    1.9415809847
C       -4.2807531528   -0.4013307579    3.1789364435
C       -5.6734152108    1.8945708308    2.4461073466
C       -5.5657328828   -0.1653194587    3.6818463620
C       -3.6862883266    0.4921697844    2.2723346694
C       -6.2764934458    0.9813835433    3.3158176686
C       -2.3051512318    0.3077274377    1.7967008725
C       -0.4901256381   -0.9235331800    0.5594632022
C       -1.8518796346   -0.7833601709    1.1180459170
C        1.7860827495    1.6999696479    1.4585524568
N       -3.4216441778   -2.8015741409    0.6715641560
N        0.5703896668   -0.1542362225    0.6901616155
O        0.5421646175    1.0009170045    1.5035037262
Cl      -7.8801817226    1.2738440884    3.9418928360
H       -3.9396292749    2.3898000000    1.2767568783
H       -3.7454535169   -1.2906338527    3.4930593762
H       -6.2106492764    2.7926721951    2.1644973261
H       -6.0168816835   -0.8756367967    4.3648277904
H       -1.7306394804    1.2207950100    1.7483269852
H       -0.3215834387   -1.8069772218   -0.0465105176
H        1.6935884782    2.6532310158    1.9864266834
H        2.0738319999    1.8980112445    0.4211703843
H        2.5683809773    1.1035652679    1.9376437807
24   

C       -2.8007515202   -1.7605432869    0.7368122495
C       -4.4771094496    1.5474809491    1.8092122376
C       -4.1805235947   -0.2847690089    3.3438705214
C       -5.7661811457    1.7590965623    2.3131955964
C       -5.4695552187   -0.0712253041    3.8466370683
C       -3.6799458227    0.5031366708    2.2969097657
C       -6.2762086247    0.9490825389    3.3327786095
C       -2.2906528192    0.3347038069    1.8132430725
C       -0.5331916614   -0.8457500762    0.4518997142
C       -1.8815513458   -0.7065345451    1.0410199660
C        1.8450861024    1.6040868605    1.5528921686
N       -3.5273039866   -2.6331746651    0.4784788351
N        0.5530369559   -0.1231371102    0.6285445074
O        0.5696557808    0.9631380623    1.5321107072
Cl      -7.8850421847    1.2130137834    3.9583646676
H       -4.0986144580    2.1929967534    1.0246626334
H       -3.5673507463   -1.0755301788    3.7618140536
H       -6.3795910233    2.5581646396    1.9135695860
H       -5.8502374543   -0.7002744986    4.6427887108
H       -1.6935346152    1.2340959266    1.8462941927
H       -0.4017081739   -1.6836203642   -0.2239087282
H        1.7920101422    2.5130763260    2.1585646375
H        2.1512727066    1.8744250484    0.5373698892
H        2.5944104063    0.9335932448    1.9844236370
24   

C       -2.8983910693   -1.5265933201    0.4991227294
C       -4.5765783964    1.3523063841    1.6566588062
C       -4.0787118184   -0.1187921083    3.5019260073
C       -5.8830009232    1.5075975734    2.1355824241
C       -5.3860503333    0.0386793025    3.9777312178
C       -3.6613991638    0.5378197939    2.3353332071
C       -6.2994046823    0.8536990466    3.3002347797
C       -2.2727705683    0.3747913830    1.8349642537
C       -0.5455175885   -0.8084476360    0.4324796583
C       -1.9098598969   -0.6016636496    0.9640328724
C        1.9172202998    1.5270360045    1.5970666709
N       -3.6811727670   -2.2930062237    0.1041834461
N        0.5710460071   -0.1460655801    0.6519709048
O        0.6060066658    0.9684489443    1.5184887015
Cl      -7.9290790290    1.0498667192    3.8961270000
H       -4.2729828804    1.8633039652    0.7498519063
H       -3.3858110643   -0.7580646723    4.0374660930
H       -6.5840337553    2.1375936033    1.6006916544
H       -5.6999603553   -0.4761514890    4.8781975241
H       -1.5686881891    1.0980591773    2.2169086056
H       -0.4341521905   -1.6410666144   -0.2533975245
H        1.9124636197    2.3869559808    2.2726899339
H        2.2466320711    1.8568488069    0.6069365906
H        2.6223972950    0.7817973053    1.9778273170
24   

C       -2.9617243034   -1.2820609132    0.2518502530
C       -4.6671478932    1.1338420786    1.5434658832
C       -3.9880707729    0.0947509093    3.6117530476
C       -5.9770470054    1.2348932980    2.0267903408
C       -5.2996703422    0.1975075680    4.0909936729
C       -3.6519687322    0.5852748686    2.3401144060
C       -6.3043064758    0.7732336389    3.3060173654
C       -2.2745298067    0.4163310155    1.8226651801
C       -0.5624650002   -0.7619184459    0.4047594433
C       -1.9398718424   -0.4912049836    0.8676235329
C        1.9235937324    1.4811333286    1.6919010994
N       -3.7735514254   -1.9347660699   -0.2687798096
N        0.5676238048   -0.1470460896    0.6840993135
O        0.5932269866    0.9934839616    1.5177959003
Cl      -7.9385634724    0.9027619023    3.9075457208
H       -4.4371118572    1.4832549830    0.5430073535
H       -3.2279773854   -0.3690925683    4.2302273805
H       -6.7505359579    1.6688930825    1.4040287702
H       -5.5467608400   -0.1765792278    5.0776221706
H       -1.5030886250    0.8321808370    2.4539472480
H       -0.4555657636   -1.5887549638   -0.2887698542
H        1.9295533728    2.2803141720    2.4383407235
H        2.3044790522    1.8768109795    0.7455178107
H        2.5821480395    0.6757923280    2.0322976137
24   

C       -2.9913810762   -1.1586971118    0.0725226061
C       -4.7464152254    0.9702636415    1.4980091842
C       -3.9207629511    0.2964010866    3.6637401211
C       -6.0380596019    1.0758137070    2.0270537203
C       -5.2149283138    0.4044711939    4.1870412148
C       -3.6664225934    0.5959790239    2.3136018339
C       -6.2838755980    0.7979057039    3.3754528319
C       -2.3050202075    0.4131539902    1.7825601359
C       -0.5940807973   -0.6712501396    0.2888031320
C       -1.9741429113   -0.4198921491    0.7565050256
C        1.9152453581    1.3973873922    1.8036997102
N       -3.8007018038   -1.7625861673   -0.5076172365
N        0.5415176547   -0.0974003627    0.6275247012
O        0.5760624288    0.9736786141    1.5484881627
Cl      -7.8967573345    0.9304702206    4.0315197133
H       -4.5853401238    1.1829675657    0.4468706058
H       -3.1115264031   -0.0254907576    4.3094630608
H       -6.8607838263    1.3703148524    1.3859909685
H       -5.3981582528    0.1760277173    5.2304491321
H       -1.5242476605    0.7475863786    2.4493859482
H       -0.4890828799   -1.4429017597   -0.4659511943
H        1.9222982668    2.1334222709    2.6124663219
H        2.3414196845    1.8535319573    0.9050735670
H        2.5345267341    0.5441833508    2.0982084110
24   

C       -2.9770078207   -1.1003985625   -0.0854595708
C       -4.8122866900    0.7848953548    1.4792181715
C       -3.8572551228    0.4598170298    3.6730562081
C       -6.0806845681    0.9158679585    2.0567958311
C       -5.1291051399    0.5930521901    4.2427307895
C       -3.6781661000    0.5576892843    2.2793291669
C       -6.2513771794    0.8217256436    3.4411491538
C       -2.3295670035    0.3707284678    1.7380345428
C       -0.5976771772   -0.5712989209    0.1708038165
C       -1.9841849656   -0.3786066222    0.6501094653
C        1.8973583391    1.3232068724    1.9184100094
N       -3.7658206328   -1.6876142357   -0.7094421696
N        0.5316994461   -0.0182478937    0.5619063097
O        0.5583885601    0.9665883256    1.5746040445
Cl      -7.8364482630    0.9845972086    4.1555731226
H       -4.7214403531    0.8750058251    0.4027973684
H       -3.0072028288    0.2716766195    4.3191925700
H       -6.9439765457    1.0911398127    1.4253878831
H       -5.2526364645    0.5142256317    5.3165215828
H       -1.5479825372    0.6771301035    2.4163652126
H       -0.4794238480   -1.2764653913   -0.6446469039
H        1.8920657143    1.9806654131    2.7922738491
H        2.3714350007    1.8470590215    1.0829634995
H        2.4810268882    0.4278302682    2.1548718057
24   

C       -2.9449408275   -1.0331584325   -0.2517155368
C       -4.8735734701    0.5957926963    1.4801078324
C       -3.7998424452    0.6202071600    3.6427355037
C       -6.1162139276    0.7589142004    2.1041531858
C       -5.0468107608    0.7847390532    4.2568403360
C       -3.6901476515    0.5129796329    2.2400943754
C       -6.2157133063    0.8519724538    3.4947682670
C       -2.3529707718    0.3251781605    1.6844087405
C       -0.5895820887   -0.4549118631    0.0608407163
C       -1.9843552283   -0.3311422658    0.5425998709
C        1.8802079424    1.2422475601    2.0311868086
N       -3.7035759356   -1.6059804738   -0.9247571531
N        0.5306883966    0.0743583910    0.5082033385
O        0.5458479175    0.9566388282    1.6113772951
Cl      -7.7698861662    1.0537775391    4.2649680054
H       -4.8581509335    0.5605598350    0.3981764523
H       -2.9147757060    0.5652116308    4.2665487910
H       -7.0158802747    0.8176472408    1.5025466840
H       -5.1136484803    0.8583208265    5.3360366468
H       -1.5724625587    0.6215935285    2.3669353469
H       -0.4532317508   -1.0826773195   -0.8130138328
H        1.8602121161    1.8130704799    2.9637645200
H        2.3954345657    1.8304436771    1.2659096749
H        2.4338176062    0.3129315673    2.1991583828
24   

C       -2.9245094060   -0.9226929685   -0.4107201658
C       -4.9311168989    0.3851076551    1.5176712621
C       -3.7690450264    0.7738806212    3.5951830499
C       -6.1519238781    0.5749408846    2.1768507852
C       -4.9945814132    0.9637748558    4.2435003485
C       -3.7078099340    0.4632814722    2.2183410361
C       -6.1969250864    0.8611092218    3.5425147010
C       -2.3785682327    0.2853814995    1.6476461740
C       -0.5906079895   -0.3393189225   -0.0166853043
C       -1.9932225468   -0.2726569041    0.4582696633
C        1.8705501452    1.1283945547    2.1417822503
N       -3.6482214523   -1.4592596197   -1.1491904864
N        0.5255949548    0.1450485383    0.4893680661
O        0.5383806533    0.9072020638    1.6785430934
Cl      -7.7249406371    1.0949608886    4.3548306905
H       -4.9871869703    0.2043988236    0.4541072515
H       -2.8598849378    0.8604863637    4.1795255752
H       -7.0789631898    0.5049956277    1.6195273455
H       -5.0175193396    1.1920368672    5.3027218268
H       -1.5997073605    0.5790212872    2.3313462489
H       -0.4410413008   -0.8782097162   -0.9460208919
H        1.8453665063    1.6131663469    3.1217504297
H        2.4085626192    1.7732958800    1.4405436091
H        2.4045653793    0.1772248513    2.2331881644
24   

C       -2.9225421158   -0.6403591912   -0.5814978216
C       -4.9507884526    0.1259394353    1.6127475541
C       -3.7594659596    0.9528811709    3.5348599623
C       -6.1598532531    0.3241800059    2.2912327456
C       -4.9729374606    1.1472143103    4.2037543247
C       -3.7113908060    0.4357510970    2.2202635520
C       -6.1845005495    0.8346829012    3.5889719186
C       -2.3866524486    0.2816717306    1.6344289465
C       -0.5832636756   -0.2680834232   -0.0392200964
C       -1.9963171791   -0.1813317332    0.4059734288
C        1.9221692695    0.8717539475    2.2748416963
N       -3.6274672466   -1.0267292151   -1.4248257286
N        0.5473854618    0.0612089377    0.5535441363
O        0.5830994185    0.6177296806    1.8510140691
Cl      -7.6984786027    1.0773796097    4.4246158204
H       -5.0484381275   -0.2715584186    0.6155931491
H       -2.8449212961    1.2118558380    4.0565143815
H       -7.0952968946    0.0778150692    1.8020875378
H       -4.9784041023    1.5451013344    5.2118465941
H       -1.6128979464    0.5903870116    2.3151608709
H       -0.4367194496   -0.6737070878   -1.0345014934
H        1.9165991571    1.2860408774    3.2869434641
H        2.4007726501    1.5893421149    1.6014032188
H        2.5003808274   -0.0573941172    2.2763655749
