17

C      1.99725   -0.96093    0.04361
C      0.79629   -0.47010   -0.43714
C      2.87160   -1.58114   -0.86057
C      0.57078   -0.64862   -1.81581
C     -1.69282    0.41813   -1.98495
C     -2.78137    0.67854   -3.01118
N      2.59747   -1.71880   -2.16064
N      1.44644   -1.25201   -2.63644
N     -0.57889   -0.22338   -2.49249
O     -1.81267    0.72949   -0.80459
H      2.25984   -0.86979    1.09381
H      0.06053    0.02346    0.18340
H      3.82923   -1.98613   -0.54396
H     -3.47041   -0.17286   -3.02346
H     -2.39070    0.81879   -4.02308
H     -3.34147    1.56383   -2.70815
H     -0.54985   -0.44735   -3.48208
