31

C      2.10653    0.15533    0.12445
C      0.82459    0.71787    0.03199
C      8.52898    4.18289   -0.09725
C      9.02711    4.11022    1.20863
C      3.22040    0.96484   -0.08787
C      0.66930    2.07012   -0.25918
C      7.17398    3.97072   -0.33245
C      8.11723    3.81704    2.22743
C      3.08905    2.33002   -0.38514
C      1.79801    2.88002   -0.46091
C      6.33807    3.67964    0.77075
C      3.91010    4.47667   -1.35755
C      2.69255    5.07642   -0.67292
C      4.31728    3.18318   -0.63088
N      6.81214    3.60280    2.03047
N      4.97921    3.46935    0.64398
O      1.55752    4.19647   -0.75079
H      2.23027   -0.89936    0.35266
H     -0.05538    0.09980    0.19054
H      9.19154    4.40616   -0.93011
H     10.07694    4.27228    1.43133
H      4.22078    0.53991   -0.02956
H     -0.31422    2.52556   -0.33052
H      6.77600    4.03239   -1.33904
H      8.45415    3.74529    3.26116
H      3.67259    4.25541   -2.40463
H      4.72991    5.20021   -1.33915
H      2.91523    5.27824    0.38282
H      2.36868    6.00369   -1.14879
H      5.00639    2.61348   -1.26833
H      4.55835    3.07702    1.47784
