29

C      1.67674   -1.40274   -0.28659
C      2.85468   -1.60974    0.43969
C      0.46280   -1.25741    0.39202
C      2.82677   -1.65903    1.83416
C      0.42250   -1.31905    1.78599
C      1.12096   -1.33576    6.07180
C      2.13340   -2.29948    5.85958
C      1.60793   -1.50713    2.50258
C      0.79286   -0.87762    4.80311
C     -0.02671    0.31111    4.40700
C     -2.10880    1.55572    4.62919
C     -2.03991   -0.77444    5.44573
N      2.40660   -2.44605    4.56325
N      1.58951   -1.56837    3.92469
N     -1.32265    0.34820    4.85490
O      0.48332    1.22017    3.75023
H      1.70420   -1.35855   -1.37194
H      3.80198   -1.72547   -0.08004
H     -0.45888   -1.10642   -0.16334
H      3.73114   -1.81526    2.41159
H     -0.52512   -1.23011    2.30749
H      0.71090   -0.98730    7.01008
H      2.66804   -2.89539    6.58890
H     -2.87748    1.38250    3.86502
H     -1.44819    2.35269    4.29195
H     -2.60445    1.85343    5.56030
H     -2.27752   -0.58112    6.49964
H     -1.44964   -1.68663    5.38315
H     -2.98246   -0.93079    4.90698
