26

C     -2.86789   -0.43722    1.47814
C      0.22003    0.52174   -0.23167
C     -3.29731   -0.18866    2.91426
C     -1.99575    1.02173   -1.31107
C      2.35729    0.53549   -1.48636
C      0.67018   -2.09432   -2.19152
C     -1.25658    0.13163   -0.29344
N     -1.79243    0.28237    1.04917
N      1.05064   -0.02712   -1.17694
O     -3.46040   -1.23750    0.74979
O      0.65064    1.29153    0.62954
O      0.44032   -0.67672   -2.26598
H     -4.32425    0.18718    2.91301
H     -3.29769   -1.14177    3.44973
H     -2.65796    0.52188    3.44543
H     -1.89825    2.07575   -1.03347
H     -3.05420    0.75098   -1.30873
H     -1.59547    0.87614   -2.31753
H      3.04994   -0.26594   -1.75602
H      2.71843    1.04519   -0.59377
H      2.28260    1.24751   -2.31590
H      0.17579   -2.51004   -3.07150
H      0.23070   -2.51322   -1.28038
H      1.74152   -2.32053   -2.22602
H     -1.37905   -0.91121   -0.58744
H     -1.28937    0.91041    1.66574
