31

C      1.57359   -1.07483    0.19675
C      0.21439   -1.06812    0.53512
C      6.83916   -3.21981    1.30798
C      7.49880   -3.37521    0.08229
C      2.34625   -2.20055    0.48199
C     -0.35587   -2.17806    1.15392
C      5.53841   -3.68761    1.45758
C      6.79453   -3.99982   -0.94831
C      1.79724   -3.32904    1.10869
C      0.42999   -3.30207    1.44313
C      4.91844   -4.31747    0.35366
C      1.71705   -5.77732    1.59352
C      0.59407   -5.41050    2.55123
C      2.64036   -4.56897    1.40677
N      5.54278   -4.45809   -0.83246
N      3.64843   -4.86278    0.40152
O     -0.22715   -4.35494    2.03319
H      2.02471   -0.21424   -0.28900
H     -0.40162   -0.19982    0.31588
H      7.33344   -2.73055    2.14384
H      8.51271   -3.02019   -0.07221
H      3.39557   -2.21045    0.20432
H     -1.40840   -2.20019    1.42155
H      5.01674   -3.55772    2.39918
H      7.25608   -4.13786   -1.92555
H      2.28630   -6.62712    1.98206
H      1.28718   -6.07329    0.62903
H     -0.08465   -6.24921    2.71894
H      1.00266   -5.09669    3.52262
H      3.16542   -4.41802    2.35487
H      3.29877   -5.09168   -0.52345
