35

C     -1.18659   -4.27700   -3.39177
C      3.65835   -0.74399    0.03599
C      1.39929    0.04908    0.16664
C      3.16815   -2.03083   -0.62091
C      0.91237   -1.23777   -0.48943
C     -1.70176   -5.54714   -4.04999
C      1.45813   -1.88766   -4.40856
C      3.09519    1.01721    1.58794
C      1.47743   -2.96169   -2.10275
C      0.62944   -2.58887   -3.33443
N      2.63198   -0.18976    0.91732
N      1.94346   -1.77900   -1.38192
N     -0.01240   -3.78191   -3.88762
O     -1.79964   -3.72847   -2.47478
H      4.55396   -0.95817    0.63023
H      3.94333   -0.02431   -0.75656
H      1.54454    0.82051   -0.61481
H      0.63251    0.41499    0.85846
H      3.93899   -2.39982   -1.30630
H      3.01295   -2.79774    0.16110
H      0.64636   -1.96841    0.29605
H      0.00519   -1.03076   -1.06321
H     -1.77905   -6.32988   -3.29037
H     -2.70912   -5.35960   -4.43093
H     -1.07203   -5.90676   -4.86922
H      2.22725   -2.55878   -4.81371
H      0.82733   -1.54721   -5.23563
H      1.96595   -1.02611   -3.96908
H      3.99044    0.79286    2.17744
H      2.32107    1.38016    2.27209
H      3.34304    1.83557    0.88442
H      2.35251   -3.52688   -2.44659
H      0.88881   -3.63313   -1.45599
H     -0.18375   -1.93407   -3.01443
H      0.47267   -4.29754   -4.60969
