26

C     -2.61331    1.57362    1.93747
C     -0.12703    0.96933    0.04673
C     -2.82052    1.18479    3.39395
C     -2.28885    1.66292   -1.11526
C      2.05772    1.25949   -1.08924
C      0.44566   -1.08157   -2.52143
C     -1.61953    0.64159   -0.17887
N     -2.28648    0.50831    1.11380
N      0.74704    0.63320   -0.97150
O     -2.75113    2.72713    1.54969
O      0.29031    1.45245    1.09349
O      0.17816    0.29493   -2.21813
H     -1.85770    1.26115    3.91079
H     -3.51497    1.88887    3.85388
H     -3.19855    0.16464    3.51504
H     -2.14959    2.67964   -0.75265
H     -3.36307    1.46248   -1.15320
H     -1.87019    1.56056   -2.11784
H      2.76876    0.55317   -1.52604
H      2.38444    1.53201   -0.08641
H      2.00094    2.15585   -1.71713
H     -0.01855   -1.25802   -3.49403
H      0.00296   -1.74211   -1.76737
H      1.52292   -1.27047   -2.58787
H     -1.68609   -0.33944   -0.65913
H     -2.02038   -0.32761    1.62030
