26

C     -1.58586    1.89451    2.20609
C      0.31390    0.94245   -0.01770
C     -2.21465    1.85609    3.59096
C     -2.00271    1.43045   -0.89227
C      2.59651    0.28945    0.58955
C      0.79220   -0.78384    2.90675
C     -1.18604    0.61087    0.10959
N     -1.69168    0.74188    1.47631
N      1.17197    0.35099    0.90166
O     -1.02359    2.89791    1.77386
O      0.75078    1.66655   -0.90111
O      0.68962   -0.85203    1.47933
H     -1.48060    2.21008    4.31901
H     -3.05768    2.55288    3.61059
H     -2.57091    0.86533    3.88850
H     -1.91343    2.49482   -0.67228
H     -3.05419    1.13309   -0.83158
H     -1.64051    1.25917   -1.90822
H      3.15283    0.06128    1.50114
H      2.90074    1.26646    0.21670
H      2.80638   -0.47206   -0.17110
H      0.34789   -1.71254    3.27327
H      0.24836    0.08115    3.29579
H      1.83904   -0.73436    3.22761
H     -1.27363   -0.45311   -0.13405
H     -2.11468   -0.06941    1.90288
