28

C     -1.36405    1.04570   -1.54037
C     -0.96015    0.07095   -0.61293
C     -2.35545    0.75515   -2.48422
C     -1.51953   -1.21255   -0.60020
C     -2.91761   -0.52240   -2.47718
C     -2.49947   -1.48378   -1.55105
C     -6.50209   -0.71387   -3.41506
C     -8.80402   -0.31256   -3.87405
C     -3.86879   -2.62561   -2.93792
C     -8.49041   -1.45657   -4.84099
C     -4.03600   -1.12633   -3.28359
N     -7.67596   -0.29115   -2.92585
N     -5.33755   -0.56087   -2.80841
O     -3.16167   -2.67903   -1.68158
S     -6.64644   -1.49870   -4.97058
H     -0.89786    2.02580   -1.52877
H     -0.18579    0.31377    0.10913
H     -2.66813    1.50404   -3.20779
H     -1.20107   -1.97041    0.10820
H     -8.86917    0.64825   -4.39528
H     -9.73473   -0.49436   -3.33381
H     -4.81012   -3.16529   -2.82605
H     -3.25587   -3.10783   -3.70663
H     -8.82458   -2.42326   -4.46143
H     -8.90428   -1.28382   -5.83399
H     -3.96893   -0.93679   -4.35774
H     -7.72108    0.26968   -2.08022
H     -5.29963   -0.05754   -1.92481
