27

C      0.30385    0.14079    1.72743
C     -0.33790   -0.50523    0.66067
C      0.25853   -0.40818    3.01694
C     -1.03335   -1.70757    0.84753
C     -0.43126   -1.60219    3.21054
C     -1.06314   -2.23206    2.13802
C      1.19787   -2.01745    6.06775
C      2.86424   -1.11969    7.32730
C     -1.39668   -3.67071    3.87606
C      1.64034   -0.54337    8.07557
C     -0.65161   -2.43565    4.45692
N      2.43318   -2.13788    6.37700
N      0.55494   -2.84680    5.17258
O     -1.70469   -3.39366    2.48665
S      0.24568   -0.71879    6.89558
H      0.83705    1.07093    1.55285
H     -0.29497   -0.06869   -0.33389
H      0.75010    0.08716    3.85023
H     -1.52903   -2.21585    0.02607
H      3.38699   -0.32244    6.78005
H      3.57682   -1.54678    8.04016
H     -0.75949   -4.56028    3.91697
H     -2.33518   -3.88224    4.39094
H      1.40689   -1.11901    8.97478
H      1.76325    0.50811    8.34212
H     -1.28863   -1.91196    5.17532
H      1.22835   -3.35115    4.60105
