25   

C       -0.2394543367   -5.5681374159   -3.7790585461
C        0.0371697899   -4.7721854011   -2.5916559564
C       -0.4762089787   -4.7867473629   -4.8794522821
C       -0.0320743986   -1.0294297021   -1.8552106491
C        0.2404608229   -2.3720519471   -1.8595235012
C       -0.0001617853   -3.4173698093   -2.8393193816
C        0.4367671759   -0.5476013468   -0.5688651375
C       -2.2025692236   -0.3142747456   -2.9222602115
C        0.3307968561    0.8454420555   -0.0217312240
C       -0.6832568693   -0.1624552809   -2.9153015445
N        0.9374678920   -1.5381735921    0.1208474723
N        0.8188893528   -2.6537362351   -0.6506856914
O       -2.7561086291   -0.5384165971   -3.9863030879
O       -2.8670044250   -0.1639154857   -1.7486627563
S       -0.3707744533   -3.0698988982   -4.5109459257
H       -0.2590966317   -6.6526579987   -3.7915475129
H        0.2371220235   -5.2145181385   -1.6235391621
H       -0.7057017092   -5.1694994188   -5.8672812896
H       -0.5539616665    1.3487713532   -0.4195612913
H        0.2574785687    0.8139217345    1.0691786327
H        1.2215026033    1.4166055790   -0.2961436513
H       -0.2779034691   -0.3949025756   -3.9020403227
H       -0.4505387027    0.8884055199   -2.7297405137
H        1.1440010392   -3.5779749062   -0.3797189978
H       -3.8067504393   -0.3117045601   -1.9414170105
25   

C       -0.2555248842   -5.4380138333   -4.0003945287
C       -0.1126030163   -4.6790522434   -2.7661238624
C       -0.1104075271   -4.6471887686   -5.1106667195
C        0.0582132747   -1.0041052878   -1.9074920695
C        0.3398292724   -2.3406023283   -1.9612229066
C        0.1325320198   -3.3438956784   -2.9927386050
C        0.4917197493   -0.5759478051   -0.5902256921
C       -2.1106296319   -0.2647426062   -2.9049896272
C        0.3750192936    0.7945904463    0.0089255751
C       -0.5933418000   -0.1148992897   -2.9450579091
N        0.9684913259   -1.5968541718    0.0732782355
N        0.8747282051   -2.6797696321   -0.7478975860
O       -2.6548034742   -0.9382225704   -3.7645146212
O       -2.7859374005    0.4097597748   -1.9409659301
S        0.2027502305   -2.9659761450   -4.6950898536
H       -0.4583645501   -6.5029335905   -4.0377893265
H       -0.2070205659   -5.1233331363   -1.7824824311
H       -0.1834443064   -5.0033143114   -6.1317548319
H       -0.4737897039    1.3331052059   -0.4195750362
H        0.2349152558    0.7183530790    1.0910149054
H        1.2907060122    1.3590334427   -0.1853660371
H       -0.2231668770   -0.3445453602   -3.9457149459
H       -0.3418340640    0.9308587482   -2.7527647347
H        1.1987817529   -3.6150722264   -0.5141163968
H       -3.7244247347    0.1892809073   -2.0566516338
25   

C       -0.3044383601   -5.3574894974   -4.0030347203
C       -0.2513704995   -4.5822794635   -2.7714652925
C        0.1189661032   -4.6320533016   -5.0876485450
C        0.0848225354   -0.9704016861   -1.8991121226
C        0.3992661791   -2.2969924972   -1.9443949881
C        0.2026457551   -3.3020727775   -2.9789424208
C        0.5154405138   -0.5232346032   -0.5869987857
C       -2.1300355499   -0.2407963588   -2.7812422219
C        0.4159803943    0.8578826838   -0.0094881684
C       -0.6179390579   -0.1331399231   -2.9454595679
N        1.0377500239   -1.5254091493    0.0726071452
N        0.9749828727   -2.6141193461   -0.7450194134
O       -2.7476998948   -0.9814681733   -3.5286025896
O       -2.7200073064    0.5372977161   -1.8396094854
S        0.5926513949   -2.9929134980   -4.6525641157
H       -0.6440420847   -6.3862350992   -4.0573423590
H       -0.5503454011   -4.9692222476   -1.8041725819
H        0.1562444187   -5.0120369801   -6.1020630920
H       -0.4937713456    0.9355530331    0.5919520395
H        1.2767242945    1.0551261965    0.6357568879
H        0.3823580561    1.6120407662   -0.7984773959
H       -0.3356114912   -0.4486216871   -3.9515733247
H       -0.3285502486    0.9155520806   -2.8494245176
H        1.3346421856   -3.5381378300   -0.5166785444
H       -3.6682133432    0.3297541986   -1.8664799258
25   

C       -0.3666272959   -5.3332133482   -4.0360282268
C       -0.3988749074   -4.5441299085   -2.8122417282
C        0.3017807099   -4.6905658717   -5.0482227765
C        0.0442351318   -1.0231702266   -1.8738628294
C        0.4144036417   -2.3321734013   -1.9144152642
C        0.2384271745   -3.3374744119   -2.9568747610
C        0.4981175332   -0.5410580188   -0.5831581904
C       -2.2094499703   -0.3009713582   -2.6522748439
C        0.3599004902    0.8444067734   -0.0254381072
C       -0.7104556721   -0.2429241323   -2.9260148052
N        1.0866597645   -1.5119776342    0.0688421205
N        1.0454399433   -2.6131347011   -0.7350036433
O       -2.8800778646   -1.1284534606   -3.2475355925
O       -2.7308509870    0.6079436849   -1.7910997904
S        0.9110374363   -3.1131745276   -4.5547314065
H       -0.8225746095   -6.3122906277   -4.1366462671
H       -0.8805362193   -4.8651266743   -1.8955819136
H        0.4398482892   -5.0960540891   -6.0438962782
H       -0.5009390096    0.8816669243    0.6474237436
H        1.2562079911    1.1081261959    0.5429860566
H        0.2146790808    1.5752146361   -0.8239242278
H       -0.5081862440   -0.6448827634   -3.9216247385
H       -0.3882329051    0.8010015073   -2.9264551265
H        1.4479185424   -3.5204063699   -0.5098521695
H       -3.6804693062    0.4141580998   -1.7298289464
25   

C       -1.1496602979   -5.0914345562   -4.3680675667
C       -1.3354992911   -4.2762714671   -3.1753014612
C        0.0960861870   -4.9239194561   -4.9210640578
C       -0.0759886245   -1.2525069371   -1.7352220749
C       -0.0727358126   -2.6112370407   -1.7546113880
C       -0.2230728286   -3.5303678158   -2.8823393920
C        0.1252609206   -0.8923095115   -0.3453425605
C       -1.7335301573    0.0929158230   -3.0152872548
C        0.2243158491    0.4883608187    0.2315479165
C       -0.2705112883   -0.3242645153   -2.9108818381
N        0.2315339791   -1.9773493850    0.3801405534
N        0.1138398266   -3.0380588155   -0.4703214631
O       -2.4886323961   -0.5885489535   -3.6895739928
O       -2.1137879441    1.2300006244   -2.3815461639
S        1.0835100374   -3.7768030735   -4.0191036225
H       -1.9108126556   -5.7485020805   -4.7748781426
H       -2.2496834184   -4.2455174812   -2.5929924312
H        0.4410089376   -5.4311327472   -5.8147148896
H       -0.7387968640    0.7730120535    0.6633217949
H        0.9787230890    0.5077482078    1.0230798146
H        0.4939559498    1.2146018867   -0.5384856438
H        0.0325385343   -0.8167486483   -3.8388570052
H        0.3509368832    0.5671116979   -2.7950445148
H        0.1706951785   -4.0181420524   -0.2013911157
H       -3.0662669403    1.3287455976   -2.5434408614
25   

C       -1.1351710514   -4.8979236154   -4.4607101134
C       -1.3161877421   -4.0350757838   -3.3013388626
C        0.1875238136   -5.0333845167   -4.8047376762
C       -0.0451086169   -1.2805773903   -1.7030233888
C        0.0409160556   -2.6362598419   -1.6980115104
C       -0.1225733426   -3.5723850782   -2.8116490179
C        0.1574017974   -0.8807025903   -0.3249483329
C       -1.8032918374   -0.0160060348   -2.9336712701
C        0.1901101811    0.5165397624    0.2182838218
C       -0.3256904773   -0.3923135887   -2.8916651556
N        0.3297991803   -1.9430874642    0.4207647127
N        0.2551344671   -3.0261930215   -0.4066000802
O       -2.6021105419   -0.8308228934   -3.3677402225
O       -2.1532265172    1.2217706407   -2.5046173312
S        1.2566299066   -4.1259307267   -3.7376274757
H       -1.9535407608   -5.3686159177   -4.9948262622
H       -2.2801947712   -3.7605041867   -2.8860846252
H        0.5435113376   -5.6254901303   -5.6399091094
H       -0.7818146308    0.7612521272    0.6547059557
H        0.9508416154    0.5940694872    1.0001381629
H        0.4135873030    1.2365234073   -0.5722934349
H       -0.0584160932   -0.9047452602   -3.8200159760
H        0.2789902804    0.5162720452   -2.8328913452
H        0.3472460199   -3.9974963838   -0.1162345637
H       -3.1193888019    1.2781768729   -2.5862828067
25   

C       -1.1343822649   -4.8317051411   -4.5417044732
C       -1.2992312984   -3.8926096081   -3.4408312581
C        0.1730962152   -5.2194091802   -4.7014495192
C       -0.0618984955   -1.3166614885   -1.7337476796
C        0.0752670196   -2.6694887443   -1.7163071596
C       -0.1133948575   -3.6243547523   -2.8065492069
C        0.1766909611   -0.8916983358   -0.3687325330
C       -1.8781301212   -0.0460307973   -2.8885904367
C        0.1822195336    0.5130819264    0.1558053768
C       -0.4058071768   -0.4448049716   -2.9192281814
N        0.4138760686   -1.9368248732    0.3830359664
N        0.3474586871   -3.0328222863   -0.4275135627
O       -2.7070213823   -0.8403959723   -3.3033013045
O       -2.1901812999    1.1909317058   -2.4295716680
S        1.2461820053   -4.4653622591   -3.5249730045
H       -1.9515073313   -5.1751413882   -5.1669870166
H       -2.2441058303   -3.4370705062   -3.1634265941
H        0.5167298139   -5.9079007695   -5.4648356018
H       -0.7840299122    0.7344175127    0.6166277513
H        0.9620640830    0.6242320234    0.9144159184
H        0.3611542716    1.2285909223   -0.6500817958
H       -0.1958033057   -0.9743973491   -3.8526796118
H        0.2123393565    0.4566405279   -2.9104868278
H        0.4774553093   -3.9966712946   -0.1269055743
H       -3.1577917430    1.2644006050   -2.4723586205
25   

C       -1.1225773037   -4.7940506083   -4.6099131570
C       -1.2790702179   -3.7806876554   -3.5758501403
C        0.1244652024   -5.3670656271   -4.5902207479
C       -0.1239103079   -1.3233176998   -1.7403978556
C        0.0481214302   -2.6742984023   -1.7347131845
C       -0.1481538487   -3.6357111447   -2.8124791643
C        0.1638477310   -0.8973718742   -0.3844280578
C       -1.9811384087   -0.0210041518   -2.8096162238
C        0.1629501430    0.5048555386    0.1473558479
C       -0.5172073145   -0.4417266808   -2.9046853574
N        0.4624542966   -1.9377782992    0.3511907747
N        0.3895953636   -3.0320217950   -0.4603460692
O       -2.8322389878   -0.7623915078   -3.2735686699
O       -2.2607597958    1.1830919149   -2.2532617711
S        1.1479569273   -4.7021112598   -3.3202999035
H       -1.9024467670   -5.0582144846   -5.3161056676
H       -2.1834805876   -3.2013823445   -3.4280403349
H        0.4523400190   -6.1396673350   -5.2761463507
H       -0.7907782157    0.7071562336    0.6417708353
H        0.9662666933    0.6263111308    0.8794517662
H        0.3020751119    1.2273830454   -0.6601167439
H       -0.3522036267   -0.9661830858   -3.8498955736
H        0.1108286886    0.4528061512   -2.9192724034
H        0.5592043013   -3.9926925674   -0.1694459386
H       -3.2273658736    1.2775052430   -2.2734477053
25   

C       -1.0723116505   -4.7318825571   -4.7064211164
C       -1.2054071976   -3.6606339855   -3.7292475484
C        0.0728013398   -5.4638435659   -4.5203987704
C       -0.1526570521   -1.3220137978   -1.7397712757
C        0.0384130219   -2.6726883389   -1.7614108733
C       -0.1577160718   -3.6249228291   -2.8423469620
C        0.1879411310   -0.9110740341   -0.3904790638
C       -2.0466320220   -0.0059064448   -2.7392047726
C        0.1942564117    0.4821608295    0.1651636214
C       -0.5814443252   -0.4134356186   -2.8718837460
N        0.5384237937   -1.9557012735    0.3146764323
N        0.4490549507   -3.0383987112   -0.5094492126
O       -2.8916063753   -0.6748863997   -3.3113511222
O       -2.3324619278    1.1175948973   -2.0369452036
S        1.0243376134   -4.8811960863   -3.1584293583
H       -1.7967475449   -4.9242135473   -5.4906008626
H       -2.0432582081   -2.9748000747   -3.7035833165
H        0.3670712100   -6.3052047539   -5.1372109502
H       -0.7458883488    0.6699139491    0.6903337416
H        1.0179804008    0.5968570985    0.8753725775
H        0.3054611201    1.2196378511   -0.6329454824
H       -0.4247458282   -0.9063490406   -3.8350851090
H        0.0361813653    0.4883268310   -2.8733846477
H        0.6531441104   -3.9989553016   -0.2412189665
H       -3.2986419980    1.2162438290   -2.0575083795
25   

C       -0.9745573973   -4.6716588575   -4.7682106577
C       -1.0817128318   -3.5435139340   -3.8542202002
C        0.0271187228   -5.5357288418   -4.4092335495
C       -0.1920525329   -1.2888785102   -1.7253308413
C        0.0185843682   -2.6392502899   -1.7586590364
C       -0.1543661962   -3.5911959605   -2.8407439155
C        0.1744101542   -0.8782507144   -0.3817116374
C       -2.1211245123   -0.0185832842   -2.7260664685
C        0.1684069626    0.5098870215    0.1877939768
C       -0.6382024980   -0.3639564492   -2.8387955942
N        0.5672364702   -1.9178104939    0.3069948475
N        0.4794530155   -2.9966102015   -0.5210043851
O       -2.9136170350   -0.6147096046   -3.4369917442
O       -2.4782189919    0.9815371067   -1.8838922700
S        0.8702058162   -5.0100136487   -2.9568834712
H       -1.6170728566   -4.8098300507   -5.6312595937
H       -1.8279160069   -2.7673802425   -3.9614013960
H        0.2777766717   -6.4403444112   -4.9512670668
H       -0.7646046285    0.6763947214    0.7324748469
H        1.0034021126    0.6314987456    0.8835654673
H        0.2520822100    1.2582780454   -0.6032057699
H       -0.4346928095   -0.8138722918   -3.8138171872
H       -0.0615631067    0.5634141058   -2.7991609299
H        0.7176500539   -3.9524426607   -0.2643199728
H       -3.4449858638    1.0570431766   -1.9405663125
25   

C       -0.8422330570   -4.6508873153   -4.8157281501
C       -0.8958444327   -3.4759254734   -3.9580940622
C       -0.0297228445   -5.6278038619   -4.3052027766
C       -0.1907411489   -1.2908838928   -1.7053932578
C        0.0450753445   -2.6406706168   -1.7512960624
C       -0.1159560001   -3.5971241929   -2.8306256015
C        0.2407863734   -0.8700548477   -0.3835184643
C       -2.1895977283   -0.1630333649   -2.7660442942
C        0.2087423197    0.5107773656    0.2034458492
C       -0.6734352500   -0.3495643035   -2.7912092392
N        0.6793050073   -1.9004867332    0.2885086587
N        0.5616383153   -2.9819931210   -0.5301132305
O       -2.8462952186   -0.6203108185   -3.6872129950
O       -2.7267385726    0.5572746651   -1.7513396019
S        0.6943266646   -5.1524908094   -2.7749291295
H       -1.3890691072   -4.7402916784   -5.7483532301
H       -1.5110921171   -2.6194267493   -4.1929937578
H        0.1502969522   -6.5849595964   -4.7810331448
H       -0.4998010301    1.1488729955   -0.3285638952
H       -0.0811871855    0.4597886664    1.2566490577
H        1.2046150902    0.9571844398    0.1405107141
H       -0.3538879150   -0.7068136086   -3.7732450078
H       -0.2078541838    0.6300534348   -2.6567328290
H        0.8274510872   -3.9325222622   -0.2810393302
H       -3.6868594187    0.5679862617   -1.8968463812
25   

C       -0.7379675674   -4.6495717394   -4.9994702037
C       -0.6672548760   -3.4507610540   -4.1768335048
C       -0.2095912139   -5.7429932330   -4.3684321919
C       -0.0999802393   -1.3715078508   -1.7886447271
C        0.1230669007   -2.7236446444   -1.8674474981
C       -0.0799948880   -3.6698881101   -2.9498637425
C        0.3598183466   -0.9790599532   -0.4680919667
C       -2.1454085317   -0.3540993319   -2.8607592621
C        0.3126395547    0.3860267298    0.1536625453
C       -0.6198773481   -0.3949403491   -2.8247204623
N        0.8179735887   -2.0215477400    0.1697587490
N        0.6795215568   -3.0844241560   -0.6690756187
O       -2.7125331539   -0.7371740673   -3.8711336772
O       -2.7934238524    0.1606751029   -1.7870455726
S        0.3894535653   -5.3516370482   -2.7632071763
H       -1.1673780571   -4.6708506093   -5.9954369622
H       -1.0634963113   -2.5061913335   -4.5186815259
H       -0.1644871648   -6.7366563433   -4.7991949633
H       -0.4966459344    0.9813935048   -0.2757784042
H        0.1530407644    0.2990108510    1.2321643925
H        1.2629846081    0.8988048963   -0.0167848269
H       -0.2192126791   -0.6357696670   -3.8116258970
H       -0.2608184603    0.6111191052   -2.5951588889
H        0.9538893192   -4.0390887284   -0.4465644884
H       -3.7431054221    0.0986852714   -1.9798293810
25   

C       -0.7955674903   -4.5213381529   -4.9197204895
C       -0.5091708731   -3.3103864092   -4.1644477849
C       -0.6848605517   -5.6495123614   -4.1515997207
C       -0.0479699109   -1.2428991793   -1.7475815779
C        0.1362986170   -2.5998858606   -1.8109688338
C       -0.1963372879   -3.5602435353   -2.8467708235
C        0.4673728349   -0.8443748619   -0.4501372223
C       -2.1500954869   -0.5678183700   -2.9891132544
C        0.4613550501    0.5284435393    0.1554460538
C       -0.6628523411   -0.3019476517   -2.7653339166
N        0.9190540184   -1.8905522091    0.1879872998
N        0.7181172877   -2.9630919081   -0.6264854747
O       -2.5488248277   -0.6499937024   -4.1398627661
O       -2.9564076017   -0.6853572932   -1.9052220612
S       -0.2327103272   -5.2787351269   -2.4934267885
H       -1.0671808520   -4.5250447072   -5.9699775976
H       -0.5408930123   -2.3301566536   -4.6195563761
H       -0.8561648001   -6.6564612505   -4.5144821310
H       -0.4351690373    1.0765662077   -0.1447742461
H        0.4804443274    0.4564777089    1.2468576753
H        1.3458115217    1.0795325077   -0.1748853773
H       -0.1210019452   -0.3749203076   -3.7109919688
H       -0.5571253060    0.7323102237   -2.4316771086
H        0.9632127684   -3.9235456244   -0.3951236875
H       -3.8465769036   -0.8808096902   -2.2392047685
25   

C       -0.7846913859   -4.4262071326   -4.9211178677
C       -0.3473616359   -3.2566310419   -4.1727969327
C       -0.9794374043   -5.5156816647   -4.1120385938
C       -0.0201801561   -1.2073626996   -1.7206964828
C        0.1613939949   -2.5610809937   -1.7944851607
C       -0.2312951121   -3.5034631077   -2.8252391934
C        0.5416693114   -0.8180559747   -0.4401670876
C       -2.1427960665   -0.7532461087   -3.0496926187
C        0.6210862151    0.5615537363    0.1438157532
C       -0.7268447462   -0.2931125095   -2.7039907819
N        1.0270487500   -1.8679098667    0.1693383844
N        0.8019533340   -2.9364345373   -0.6457055590
O       -2.4839675080   -0.7058199105   -4.2208124961
O       -2.9498210124   -1.1888534064   -2.0505852161
S       -0.6409137237   -5.1594570859   -2.4221238179
H       -0.9409419054   -4.4300969154   -5.9946031520
H       -0.1373756758   -2.3013922533   -4.6382007189
H       -1.3067918329   -6.4873935929   -4.4635749186
H       -0.2791771614    0.7607541046    0.7315400646
H        1.4910054090    0.6393280131    0.8023506311
H        0.7056072123    1.3124684580   -0.6451448081
H       -0.1329033262   -0.2155722749   -3.6181558997
H       -0.8062754132    0.7126350962   -2.2864200044
H        1.0612647114   -3.8979178432   -0.4350920135
H       -3.7786659680   -1.4745809729   -2.4666964038
25   

C       -0.7131898211   -4.4174355559   -4.9412008196
C       -0.1882717361   -3.2798390115   -4.1995794527
C       -1.1321747794   -5.4272834955   -4.1123042034
C       -0.0519760604   -1.1804795231   -1.7495017225
C        0.1718113997   -2.5252711840   -1.8187964623
C       -0.2252845715   -3.4783871825   -2.8413467857
C        0.5495128403   -0.7630833675   -0.4966528027
C       -2.1869769487   -0.8869871676   -3.1139538577
C        0.6012320570    0.6229473732    0.0744254557
C       -0.8247767621   -0.3123968496   -2.7248563493
N        1.1047825418   -1.7904248472    0.0935592347
N        0.8860729557   -2.8729405894   -0.7059712785
O       -2.5059850858   -0.8394160291   -4.2913360024
O       -2.9734632409   -1.4185780561   -2.1453546178
S       -0.9040541626   -5.0346939348   -2.4109173784
H       -0.7717273828   -4.4555339315   -6.0237318536
H        0.1794620650   -2.3738348824   -4.6673739263
H       -1.5595163696   -6.3621106883   -4.4564213126
H       -0.2561634806    0.7770404035    0.7352070816
H        1.5173156805    0.7523814568    0.6578891367
H        0.5777402254    1.3714272407   -0.7209936917
H       -0.2245043054   -0.1662398166   -3.6267096438
H       -0.9998558249    0.6722966760   -2.2862526907
H        1.1946085284   -3.8223029473   -0.5069568660
H       -3.7605390221   -1.7710794955   -2.5902630600
25   

C       -0.6553781203   -4.4244846983   -4.9194952001
C       -0.0500985589   -3.3393005647   -4.1603902725
C       -1.2934524033   -5.3304382570   -4.1094876624
C       -0.0851655449   -1.1885579076   -1.7047054364
C        0.1652545316   -2.5261101571   -1.7853742145
C       -0.2430742693   -3.4791156316   -2.8092347801
C        0.5648898883   -0.7592373752   -0.4808648839
C       -2.2339843289   -0.9823968855   -3.0677946157
C        0.6093484545    0.6273008431    0.0891739713
C       -0.9081785920   -0.3418117560   -2.6571581602
N        1.1787202742   -1.7729836620    0.0753113874
N        0.9510404605   -2.8592106317   -0.7174584571
O       -2.5338992853   -0.9569702069   -4.2508776783
O       -3.0145797130   -1.5395441664   -2.1089841022
S       -1.1802111809   -4.9024618420   -2.4046294485
H       -0.6142866399   -4.4996447328   -6.0008592843
H        0.4752410649   -2.5034981034   -4.6086140183
H       -1.8143753550   -6.2101547903   -4.4695381209
H       -0.2069493660    0.7534148679    0.8055229246
H        1.5573428156    0.7858807615    0.6112299616
H        0.5089742743    1.3747534431   -0.7012446511
H       -0.3163998927   -0.1401645902   -3.5541428402
H       -1.1386299465    0.6192347266   -2.1921333565
H        1.2981775745   -3.7998132878   -0.5416483617
H       -3.7746139204   -1.9324520018   -2.5668446697
25   

C        0.3447733846   -4.9054894465   -4.5164016228
C        0.7839159035   -3.9109128425   -3.5472811389
C       -0.9431416363   -5.3199935799   -4.2835835954
C       -0.0651985038   -1.2857775761   -1.6174283942
C       -0.0743647676   -2.6433029655   -1.5445381946
C       -0.1865183346   -3.6273783162   -2.6204938810
C        0.0865233931   -0.8327896189   -0.2483335033
C       -1.6643991073   -0.0317088898   -3.0600369114
C        0.1711982950    0.5830710744    0.2386329859
C       -0.2078729501   -0.4374978325   -2.8597993047
N        0.1604222088   -1.8664578329    0.5519807955
N        0.0607877156   -2.9818403793   -0.2278357444
O       -2.3550353372   -0.6922177177   -3.8185126416
O       -2.1049508492    1.0804301211   -2.4207790273
S       -1.6624047406   -4.5246226429   -2.8858655048
H        0.9612376210   -5.2699503543   -5.3310586497
H        1.7591735192   -3.4374118512   -3.5569890881
H       -1.4699912396   -6.0492910247   -4.8880690519
H       -0.8070647527    0.8989608899    0.6106836851
H        0.8927421498    0.6529625399    1.0574351739
H        0.4754907050    1.2555024030   -0.5664622866
H        0.1381775636   -0.9887007818   -3.7383630821
H        0.4052901247    0.4628720452   -2.7745356947
H        0.0760538023   -3.9415366712    0.1113843052
H       -3.0442437986    1.1738070678   -2.6494814445
25   

C        0.4226286099   -5.0569382288   -4.4138530658
C        0.8776301076   -4.0990863202   -3.4153908988
C       -0.9374603985   -5.2395937828   -4.3719159526
C       -0.0961126336   -1.2652180243   -1.6427976296
C       -0.0346463348   -2.6213253610   -1.5858038933
C       -0.1577080707   -3.6046496031   -2.6641894282
C        0.0887819396   -0.8197982047   -0.2754141516
C       -1.7898165324   -0.0315029789   -2.9977242463
C        0.1312569734    0.5939664236    0.2226950183
C       -0.3189923466   -0.4150540649   -2.8717292523
N        0.2410034786   -1.8572824072    0.5092853122
N        0.1620425807   -2.9684091474   -0.2791674586
O       -2.5100271453   -0.7078276306   -3.7135567559
O       -2.2119390271    1.0801786387   -2.3454335017
S       -1.7084757157   -4.2621263553   -3.1254285048
H        1.0810877597   -5.5627550946   -5.1118192655
H        1.9115671786   -3.8017261481   -3.2808206702
H       -1.4869136883   -5.9035607700   -5.0292739847
H       -0.8451727567    0.8649678093    0.6329179522
H        0.8787769549    0.6875625733    1.0154104563
H        0.3772973213    1.2851225355   -0.5865421270
H       -0.0083532718   -0.9583513810   -3.7686341423
H        0.2837739930    0.4945713070   -2.8136900432
H        0.2253348215   -3.9300751060    0.0486606373
H       -3.1625640445    1.1600170093   -2.5277069890
25   

C        0.4695757936   -5.1489300063   -4.3321027644
C        0.9379915484   -4.2419762136   -3.2931324798
C       -0.8892583800   -5.0711616626   -4.5110067321
C       -0.0613180699   -1.1993717390   -1.6508968136
C        0.0518342948   -2.5536687109   -1.6459483201
C       -0.0855882678   -3.5146572122   -2.7404103529
C        0.1522352212   -0.7975989381   -0.2740813908
C       -1.8047701314    0.1400996908   -2.8445487356
C        0.1730416827    0.5989346062    0.2715802789
C       -0.3463744124   -0.3079349124   -2.8373822113
N        0.3598180120   -1.8566619022    0.4680338698
N        0.2913629935   -2.9412066502   -0.3573677540
O       -2.6261660385   -0.5546454571   -3.4197507914
O       -2.1072616142    1.3216578205   -2.2518268036
S       -1.6426438955   -3.8998472989   -3.4323913240
H        1.1187285572   -5.8081998791   -4.8983207361
H        1.9743068202   -4.1482941570   -2.9884064012
H       -1.4471140949   -5.6564949196   -5.2328717834
H       -0.7947012993    0.8275162547    0.7257713415
H        0.9464738539    0.6873342366    1.0396821543
H        0.3704172481    1.3236196006   -0.5217111893
H       -0.1280555568   -0.8376227778   -3.7689297358
H        0.2989721787    0.5735619142   -2.8038287527
H        0.3811765020   -3.9118507910   -0.0642899854
H       -3.0669045053    1.4372706762   -2.3478141581
25   

C        0.4826297857   -5.3084151938   -4.2436085839
C        0.9177361711   -4.4135036795   -3.1801207708
C       -0.8154493354   -5.0701243600   -4.6198519370
C       -0.1436385911   -1.2049341483   -1.7325191865
C        0.0481074229   -2.5516228068   -1.7314263656
C       -0.0657976036   -3.5310813951   -2.8070151948
C        0.1038522628   -0.7878723948   -0.3656103219
C       -1.9782993685    0.0967537801   -2.8384632425
C        0.0757559253    0.6098620214    0.1768722806
C       -0.5127601636   -0.3236119952   -2.9041490092
N        0.4021984716   -1.8306970577    0.3681815169
N        0.3619426056   -2.9196159270   -0.4526763577
O       -2.8173331635   -0.6276821025   -3.3475464152
O       -2.2703642020    1.2877083940   -2.2597813281
S       -1.5489598600   -3.7569852149   -3.7037401660
H        1.1108207794   -6.0741201882   -4.6860462775
H        1.9055951156   -4.4382884021   -2.7341152026
H       -1.3407398462   -5.6191273275   -5.3928903634
H       -0.8913090374    0.7983985804    0.6503576131
H        0.8606695369    0.7341068729    0.9282250201
H        0.2258105065    1.3397383198   -0.6220457313
H       -0.3303466186   -0.8491822064   -3.8455028819
H        0.1153325621    0.5709757983   -2.9057367796
H        0.5116668641   -3.8827989351   -0.1599998616
H       -3.2358909319    1.3835327503   -2.3059642507
25   

C        0.4289960467   -5.3835417513   -4.1580138696
C        0.8319369978   -4.5309443126   -3.0482791483
C       -0.7595064915   -4.9813986584   -4.7124256146
C       -0.1695538247   -1.1865964456   -1.7345985239
C        0.0471562907   -2.5318163785   -1.7475490235
C       -0.0642518194   -3.5151654338   -2.8149111295
C        0.1262529034   -0.7696866682   -0.3766757091
C       -2.0532921499    0.1034439454   -2.7759923210
C        0.0955240035    0.6245175233    0.1755289886
C       -0.5823435795   -0.2899309017   -2.8809022112
N        0.4781597633   -1.8076754273    0.3389812172
N        0.4271625913   -2.8934135373   -0.4843544963
O       -2.8904912734   -0.6200537631   -3.2892559495
O       -2.3530492727    1.2734378226   -2.1598056951
S       -1.4246197594   -3.5612485323   -3.9121438484
H        1.0016392568   -6.2365735229   -4.5060283471
H        1.7416943589   -4.6783016967   -2.4777236722
H       -1.2438935629   -5.4721109152   -5.5487785338
H       -0.8577533986    0.7956089325    0.6823542135
H        0.9034265128    0.7563374334    0.9008085407
H        0.2079133662    1.3620689795   -0.6224159538
H       -0.4065283055   -0.7882678088   -3.8376707302
H        0.0281435931    0.6166858528   -2.8774918172
H        0.6075951451   -3.8533741477   -0.1993935395
H       -3.3206604411    1.3547105042   -2.1856785014
25   

C        0.3499867314   -5.5242429561   -4.0281322990
C        0.7156300255   -4.7020681188   -2.8833153799
C       -0.6915301015   -4.9853380200   -4.7381248809
C       -0.1709561107   -1.2278034591   -1.7090057591
C        0.0586208840   -2.5741769656   -1.7235764376
C       -0.0622613307   -3.5717850708   -2.7735952807
C        0.1842476013   -0.7975560245   -0.3684258180
C       -2.1185000416   -0.0141095561   -2.7294785192
C        0.1622643067    0.5973243527    0.1839635600
C       -0.6276454528   -0.3233464909   -2.8341771987
N        0.5869659899   -1.8244130940    0.3348427518
N        0.5128497887   -2.9150700743   -0.4784448804
O       -2.8989669771   -0.6568443093   -3.4118715295
O       -2.4966881639    1.0093043445   -1.9242446781
S       -1.2585428709   -3.4707282767   -4.0443674109
H        0.8447476887   -6.4533074079   -4.2903570885
H        1.5234341847   -4.9541373927   -2.2065938475
H       -1.1244968304   -5.4299254993   -5.6268316866
H       -0.7720491835    0.7595399006    0.7276703672
H        0.9966046033    0.7374130141    0.8770736104
H        0.2362418386    1.3368637873   -0.6162695373
H       -0.4109470984   -0.7762416002   -3.8044644350
H       -0.0727457321    0.6172872155   -2.8000552211
H        0.7255568791   -3.8681220542   -0.1939178336
H       -3.4651593408    1.0568512875   -1.9799313630
25   

C        0.2483371503   -5.5580699351   -3.9438295107
C        0.5597996952   -4.7613142305   -2.7656148262
C       -0.5826573023   -4.8959809154   -4.8088590756
C       -0.1655702097   -1.1641785039   -1.7355226305
C        0.0805820470   -2.5119024531   -1.7486288515
C       -0.0484109165   -3.5247645405   -2.7823181867
C        0.2565599789   -0.7126325937   -0.4206926644
C       -2.1823135832   -0.0900730062   -2.8010806572
C        0.2196120486    0.6811456947    0.1344916891
C       -0.6641902746   -0.2516739399   -2.8384337964
N        0.6918597893   -1.7269031784    0.2787659997
N        0.5803054097   -2.8282187828   -0.5133892106
O       -2.8507643357   -0.6446098381   -3.6575468735
O       -2.7094581689    0.7228157981   -1.8522772146
S       -1.0115589043   -3.2936300283   -4.2235161091
H        0.6313467152   -6.5577759741   -4.1187604562
H        1.2142559515   -5.1135145964   -1.9778609261
H       -0.9409517836   -5.3005996854   -5.7484439239
H       -0.4890081476    1.3051805316   -0.4138239005
H       -0.0727718311    0.6537295216    1.1878842939
H        1.2145424403    1.1284967316    0.0636492842
H       -0.3516752663   -0.6230416124   -3.8168747250
H       -0.2111719716    0.7367049113   -2.7279365724
H        0.8162823081   -3.7734648869   -0.2229346124
H       -3.6720841732    0.7036474162   -1.9782100605
25   

C       -0.0648612220   -5.5860442591   -3.8258174748
C        0.2704506771   -4.7888433366   -2.6543593154
C       -0.6406839869   -4.8328146548   -4.8148301658
C       -0.1093276468   -1.0691088844   -1.8209780712
C        0.1480848970   -2.4163602019   -1.8128005747
C       -0.0644025025   -3.4598964839   -2.8006841530
C        0.3577096123   -0.5803295253   -0.5365142844
C       -2.2259557233   -0.2022177930   -2.9028541612
C        0.2743364134    0.8205816931   -0.0054736213
C       -0.6986638596   -0.1858311706   -2.9045402949
N        0.8473959610   -1.5685533722    0.1632241115
N        0.7210570988   -2.6890629221   -0.5991937953
O       -2.8016593229   -0.3416794761   -3.9696036450
O       -2.8701063620   -0.0368761452   -1.7201176167
S       -0.7934678379   -3.1411661547   -4.3581899463
H        0.1194976273   -6.6519431864   -3.9072174050
H        0.7346319574   -5.2142253071   -1.7734963537
H       -0.9688620764   -5.2219427011   -5.7718525755
H       -0.5742721417    1.3505964896   -0.4449386607
H        0.1537450380    0.8009597954    1.0814274848
H        1.1952843629    1.3587923747   -0.2445712998
H       -0.3208574292   -0.4825924111   -3.8851661782
H       -0.3738947770    0.8463314148   -2.7551827741
H        1.0139780504   -3.6171752841   -0.3065508031
H       -3.8199845701   -0.0928816009   -1.9117349519
