24   

C       -0.6504081577    1.1834799883   -0.0138622251
C        0.5635715259    0.6605188954    0.3739303750
C        1.5239331323    1.4391078584    1.2314323659
C       -1.6051640177    0.4319829072   -0.8911219661
C       -0.1052917481   -1.5175683779   -0.6526165615
C        3.6370874071    1.7189410003    2.4741245069
C        3.6169511709    0.3629210553    0.3897488991
N        0.8921958352   -0.6570094359   -0.0218197457
N       -0.8864803599   -0.6697718029   -1.5465446740
N        2.8617808499    1.0557578137    1.4296051726
O        1.1567470494    2.4617990752    1.8123676603
H       -0.8985619549    2.1984766488    0.2736474568
H       -2.4250582543    0.0379551318   -0.2819051999
H       -2.0254110609    1.1072882491   -1.6436562429
H        0.3890494558   -2.3075100232   -1.2265780861
H       -0.7510808200   -1.9729294723    0.1060197558
H        4.5722191077    1.1812213815    2.6596639234
H        3.0730352832    1.7371627665    3.4125223923
H        3.8706190763    2.7468373772    2.1783014486
H        4.6128325201    0.8062055059    0.2884528056
H        3.1337349189    0.4674741339   -0.5872821048
H        3.7280069273   -0.6974609022    0.6341843081
H        1.7533308513   -1.0761756747    0.3090765049
H       -1.4959651994   -1.2156807563   -2.1460300462
24   

C       -0.6292423771    1.1569094628   -0.0240679683
C        0.5506660577    0.6066449144    0.4227074343
C        1.4836639374    1.3522963927    1.3368038258
C       -1.5638336784    0.4161520395   -0.9319310890
C       -0.1510648151   -1.5786460914   -0.5606040369
C        3.6372202564    1.6485567186    2.5069024155
C        3.5712361814    0.4156382021    0.3424253249
N        0.8437611481   -0.7366878973    0.0991048189
N       -0.8530017993   -0.7295862712   -1.5178400915
N        2.8436206323    1.0225682767    1.4539841992
O        1.0593535571    2.2477287168    2.0704236607
H       -0.8600802911    2.1819698435    0.2409009502
H       -2.4297860619    0.0700296661   -0.3584889110
H       -1.9165476696    1.0845264482   -1.7243110268
H        0.3426620974   -2.4021280398   -1.0858874099
H       -0.8521962401   -1.9882245789    0.1746235152
H        4.6136700699    1.1617855499    2.5941594389
H        3.1303643690    1.5540190776    3.4728222862
H        3.7893386146    2.7099588090    2.2855940429
H        4.5275702712    0.9273182317    0.1939595827
H        3.0187700234    0.5150659038   -0.5977666452
H        3.7639470996   -0.6428115805    0.5397740497
H        1.6685213915   -1.1749994593    0.4938497683
H       -1.4503143972   -1.2711888952   -2.1333050319
24   

C       -0.6015043884    1.1438461933   -0.0342421947
C        0.5351287807    0.5561018168    0.4694374941
C        1.4516438287    1.2601362917    1.4344762790
C       -1.5211166107    0.4214377020   -0.9719761692
C       -0.2159207024   -1.6233192361   -0.4858525707
C        3.6476968559    1.5772724070    2.5210731727
C        3.5174721144    0.4694928942    0.2871245796
N        0.7783466581   -0.8100112868    0.2099143187
N       -0.8310281941   -0.7668412591   -1.4959474295
N        2.8285967480    0.9943101857    1.4637381863
O        0.9954407656    2.0015302817    2.3081198512
H       -0.8040314047    2.1801732049    0.2081980840
H       -2.4287415490    0.1255375674   -0.4361809108
H       -1.8043275907    1.0847157874   -1.7959264717
H        0.2689256339   -2.4777654571   -0.9682117716
H       -0.9713701581   -1.9874497682    0.2188143585
H        4.6467573804    1.1302291845    2.5241555515
H        3.1960543028    1.3912959354    3.5009167467
H        3.7446595017    2.6574342863    2.3710560341
H        4.4301362986    1.0436158691    0.0980133797
H        2.9014825985    0.5601675362   -0.6135733018
H        3.7831267225   -0.5812873348    0.4343173020
H        1.5630008398   -1.2711881582    0.6579911645
H       -1.4187413467   -1.2972848480   -2.1301223876
24   

C       -0.4865615588    1.1447292686    0.0141288011
C        0.5973904712    0.5102105026    0.5713560688
C        1.5252271129    1.1715821667    1.5594084122
C       -1.4082863028    0.4425510746   -0.9371284110
C       -0.2317541194   -1.6539333625   -0.3451299393
C        3.7823185334    1.5414220764    2.5027259574
C        3.5307866489    0.5487969517    0.2209607103
N        0.7736027556   -0.8744890383    0.3732151711
N       -0.7612276185   -0.7944064110   -1.4013699946
N        2.9122685827    0.9956623951    1.4669496330
O        1.0793556222    1.7413016975    2.5588715580
H       -0.6411089954    2.1964932813    0.2215452842
H       -2.3488637892    0.2087915070   -0.4281779331
H       -1.6263630628    1.0944248860   -1.7895183672
H        0.2280241109   -2.5439352759   -0.7859832033
H       -1.0331743507   -1.9613441964    0.3353302840
H        4.7811813730    1.0991256841    2.4354446481
H        3.3862627255    1.3161470799    3.4981794954
H        3.8678296849    2.6268845033    2.3890307040
H        4.3939931636    1.1783489643   -0.0173398932
H        2.8418739175    0.6298803669   -0.6260802873
H        3.8611664092   -0.4902046229    0.3093047713
H        1.5163194247   -1.3608642997    0.8647454751
H       -1.3504316090   -1.3119918072   -2.0447564311
24   

C       -0.4337979008    1.1709313393   -0.0814407231
C        0.5423535814    0.4744974475    0.5876943028
C        1.4425935155    1.0764774920    1.6407896329
C       -1.3116646947    0.5047636667   -1.0980146240
C       -0.3208359706   -1.6499651326   -0.3761947799
C        3.7079260906    1.5719338699    2.5233582092
C        3.4290695699    0.7328692903    0.1810711390
N        0.6595581958   -0.9197631946    0.4234904522
N       -0.7026832842   -0.7776535522   -1.4857814414
N        2.8323698947    1.0647068536    1.4724271458
O        0.9821644344    1.4307930642    2.7300846279
H       -0.5318246975    2.2358779552    0.0881774463
H       -2.3042506518    0.3361956868   -0.6680134671
H       -1.4177598304    1.1507856942   -1.9757263935
H        0.1236709346   -2.5716647019   -0.7644696978
H       -1.1968163160   -1.9005920563    0.2318147217
H        4.6904150453    1.0938945717    2.4612046705
H        3.3013855724    1.3548823647    3.5162844440
H        3.8319464076    2.6544784125    2.4192526687
H        4.2547996538    1.4168021823   -0.0391725222
H        2.7101948949    0.8337509563   -0.6382863453
H        3.8091248499   -0.2929627367    0.1906069557
H        1.3181092853   -1.4400273651    0.9944149167
H       -1.2637550471   -1.2714890884   -2.1716210876
24   

C       -0.1942085015    1.2086378797   -0.2485044072
C        0.5522816298    0.4229041400    0.5941232054
C        1.4628698054    0.9444369718    1.6808367798
C       -1.0394902423    0.6025078821   -1.3279800849
C       -0.4104532653   -1.6227946847   -0.4241482105
C        3.6817258202    1.7625597078    2.4447834467
C        3.3390262728    1.0840955132    0.0559815381
N        0.5570680834   -0.9771255633    0.4585257479
N       -0.5603675737   -0.7626920880   -1.5982835185
N        2.7967811623    1.2577066680    1.4002867678
O        1.0346027847    1.0868141815    2.8307007552
H       -0.1407374231    2.2859834424   -0.1562512458
H       -2.0834671207    0.5753411787   -0.9982824392
H       -0.9778178371    1.2117798900   -2.2354738912
H       -0.0413836808   -2.6070217784   -0.7290699359
H       -1.3711547935   -1.7419964063    0.0885767278
H        4.2633622151    0.9415641892    2.8749571304
H        3.1181816509    2.2529363723    3.2449691743
H        4.3675385434    2.5077493541    2.0297268870
H        3.2125123882    2.0025744006   -0.5253311883
H        2.8526088135    0.2591874092   -0.4739557621
H        4.4051190303    0.8418754539    0.1075310057
H        1.0644978927   -1.5436258521    1.1315281009
H       -1.1066661387   -1.2180315645   -2.3217128511
24   

C        0.0583763745    1.1847187326   -0.3481090346
C        0.6058837515    0.3650198598    0.6095581290
C        1.5434420256    0.8131615410    1.7034987796
C       -0.7996873902    0.6314756851   -1.4454897017
C       -0.5232779058   -1.5994978276   -0.3912016899
C        3.6132483179    1.9385724776    2.4677129148
C        3.2962954568    1.3921105251    0.0418532638
N        0.4682066654   -1.0294209141    0.5154659498
N       -0.4943812460   -0.7976360109   -1.6147065117
N        2.7612968778    1.4289265814    1.3995738122
O        1.1720612201    0.7613147259    2.8814887559
H        0.2653612514    2.2469273386   -0.3211453764
H       -1.8540844241    0.7591507598   -1.1774766427
H       -0.6109637353    1.1738059425   -2.3774019676
H       -0.2680126633   -2.6386807030   -0.6210447743
H       -1.5181808914   -1.5665619086    0.0662517018
H        4.2162615262    1.1274859234    2.8879701631
H        3.0131163078    2.3871385792    3.2659644797
H        4.2809575005    2.7157602970    2.0830993265
H        3.0661400354    2.3234731140   -0.4840143810
H        2.8876308312    0.5510116915   -0.5280022185
H        4.3822123829    1.2567068040    0.0673719092
H        0.8395217391   -1.6092388302    1.2629076887
H       -1.0591209015   -1.2202759212   -2.3437673297
24   

C        0.2634034443    1.0569343367   -0.3898459762
C        0.7567213743    0.2566022718    0.6147046717
C        1.7321722618    0.6823427529    1.6804015370
C       -0.6641210612    0.5122507369   -1.4341278634
C       -0.5720897555   -1.6559038277   -0.2267834493
C        3.6833045096    1.9841934931    2.4640831976
C        3.3602319149    1.5564812744    0.0191134124
N        0.4925131938   -1.1199295279    0.6146648935
N       -0.5020053062   -0.9477123937   -1.5050467835
N        2.8494398791    1.4702735762    1.3837110909
O        1.4479138240    0.4733786721    2.8664909325
H        0.5478481819    2.1002377482   -0.4330304459
H       -1.6959894215    0.7600310077   -1.1624324517
H       -0.4432941896    0.9670712124   -2.4049418831
H       -0.4207566655   -2.7280907345   -0.3861249278
H       -1.5465173837   -1.4968525770    0.2479647985
H        4.3440694264    1.1957056431    2.8381937951
H        3.0648775427    2.3532203614    3.2887188999
H        4.2937017363    2.8206718725    2.1097257445
H        3.0451599510    2.4937931316   -0.4489100948
H        3.0120636430    0.7164706708   -0.5911677976
H        4.4539876041    1.5108208132    0.0215978543
H        0.8071875786   -1.6640843692    1.4142964920
H       -1.1230007194   -1.3646999967   -2.1902117148
24   

C        0.3493048361    0.9652729679   -0.4842281510
C        0.7942941743    0.1715959400    0.5497278587
C        1.7845463329    0.5591953379    1.6139188715
C       -0.6343922213    0.4524239065   -1.4934818922
C       -0.7320224628   -1.6436139526   -0.1645027087
C        3.6476431970    1.9232260008    2.4929171145
C        3.3499250301    1.6631017239    0.0254293026
N        0.3964612129   -1.1677687956    0.6274483651
N       -0.6182262765   -1.0177674465   -1.4816982180
N        2.8390509499    1.4488826461    1.3754943930
O        1.5726753823    0.1933326314    2.7781529287
H        0.6958663601    1.9858459983   -0.5740600827
H       -1.6350118941    0.8158054450   -1.2353988907
H       -0.3775037841    0.8264855796   -2.4895766955
H       -0.6883829034   -2.7326790712   -0.2639445459
H       -1.6764770174   -1.3631681938    0.3145787621
H        4.3447130034    1.1422883665    2.8131411428
H        3.0105295460    2.2023425116    3.3384719827
H        4.2178202447    2.8110727862    2.2021241297
H        2.9784964470    2.6090678913   -0.3797618567
H        3.0610668894    0.8450678861   -0.6428270111
H        4.4443518017    1.6889925671    0.0352218700
H        0.6682692573   -1.6831258706    1.4624407633
H       -1.2875118042   -1.4106156249   -2.1348183267
24   

C        0.4417576834    0.8633438565   -0.5308187807
C        0.8691989193    0.0916738350    0.5288933241
C        1.8772197939    0.4674955574    1.5808858598
C       -0.5985878326    0.3661004507   -1.4908986013
C       -0.8241344446   -1.6299003005   -0.0309557418
C        3.6771998259    1.8692509897    2.5229390163
C        3.3637976033    1.7575625440    0.0506340946
N        0.3620997606   -1.1978726697    0.6982819981
N       -0.7000229991   -1.0966563805   -1.3868665689
N        2.8736764084    1.4332807076    1.3858623379
O        1.7663912967   -0.0343766185    2.7085851454
H        0.8284998252    1.8613585136   -0.6788392648
H       -1.5622143502    0.8242593722   -1.2433048920
H       -0.3321062983    0.6546733569   -2.5126006674
H       -0.8688959997   -2.7230087782   -0.0620020382
H       -1.7284556750   -1.2453037730    0.4531887628
H        4.4044592232    1.0961467289    2.7908675040
H        3.0380178681    2.0739082742    3.3880828250
H        4.2127342824    2.7929196965    2.2820247550
H        2.9351295438    2.7021778438   -0.2972944429
H        3.1241199760    0.9623244358   -0.6628824705
H        4.4546258122    1.8504617810    0.0608403420
H        0.6342946698   -1.6850355884    1.5511540330
H       -1.4149773428   -1.4744673390   -1.9991023184
24   

C        0.4981458940    0.7819750513   -0.6098746501
C        0.9112457098    0.0260376992    0.4688982998
C        1.9394109239    0.3808451097    1.5114207950
C       -0.5935789529    0.3107327563   -1.5262416964
C       -0.9339589353   -1.5802782635    0.0443627885
C        3.6941074749    1.7862569946    2.5270443370
C        3.3355509287    1.8641897276    0.0639216189
N        0.3015050358   -1.2019926460    0.7185738881
N       -0.8045507222   -1.1316674420   -1.3405776218
N        2.8842461661    1.4081845267    1.3731208465
O        1.9386489514   -0.2541581726    2.5762169747
H        0.9234304062    1.7525957800   -0.8135649116
H       -1.5155413754    0.8542912247   -1.2935408124
H       -0.3234939307    0.5205830973   -2.5660858721
H       -1.0623705016   -2.6667285432    0.0757051096
H       -1.7926310377   -1.1007799105    0.5268681349
H        4.4642817664    1.0308728111    2.7131132298
H        3.0668291022    1.8840108565    3.4192444375
H        4.1776305155    2.7532953368    2.3565222069
H        2.8266641065    2.7911590096   -0.2172170124
H        3.1625048431    1.0992818964   -0.7001462097
H        4.4142750275    2.0508217661    0.0794482759
H        0.5937251258   -1.6884690850    1.5661561644
H       -1.5600159983   -1.4861070040   -1.9170303088
24   

C        0.5652467141    0.6947737249   -0.6797110156
C        0.9538934336   -0.0206939428    0.4376296436
C        2.0205366897    0.3049394845    1.4564972443
C       -0.5843843932    0.2494369575   -1.5374755361
C       -1.0399795679   -1.4872819832    0.1702332598
C        3.7838013805    1.6635418655    2.5209485319
C        3.2824440653    2.0042657609    0.1081971415
N        0.2337707767   -1.1556070116    0.7952473967
N       -0.9045225215   -1.1539414514   -1.2452806899
N        2.9328227714    1.3691249888    1.3709757203
O        2.1246653086   -0.4397804835    2.4431407386
H        1.0514805308    1.6074242364   -0.9809477303
H       -1.4542493290    0.8808981446   -1.3277485161
H       -0.3243913422    0.3620300590   -2.5948999766
H       -1.2493425339   -2.5553058914    0.2857549434
H       -1.8500083882   -0.9088447891    0.6276499641
H        4.5940152989    0.9306951374    2.5901778618
H        3.1991807283    1.6377539195    3.4465833789
H        4.2157257081    2.6655538487    2.4347583084
H        2.6306955219    2.8618554543   -0.0848920953
H        3.2216100844    1.2868190045   -0.7165490038
H        4.3177376959    2.3594699377    0.1346308658
H        0.5551282710   -1.6548530988    1.6253130507
H       -1.6969935128   -1.4879044738   -1.7829452895
24   

C        0.7981579426    0.6294102549   -0.6558421057
C        0.9097584525    0.2860574384    0.6754731253
C        2.1048905462    0.4530629003    1.5801136107
C       -0.4104835767    0.2435661743   -1.4535774268
C       -1.3383213682   -0.7957418557    0.5947671868
C        4.3723232117    1.2356052084    2.1583524314
C        3.0465398591    2.4735390811    0.4489448078
N       -0.1279671115   -0.3936210564    1.3070508014
N       -1.0067529008   -0.9408352158   -0.8222020750
N        3.1835771612    1.3089193548    1.3148439129
O        2.1582302384   -0.2372509251    2.6070543357
H        1.6315689516    1.0566855853   -1.1926334347
H       -1.1284378800    1.0696138215   -1.4699515044
H       -0.1151435049    0.0116527063   -2.4822470785
H       -1.7002385062   -1.7513404630    0.9873745515
H       -2.1197009560   -0.0400665376    0.7263486321
H        5.2167781179    1.7379838564    1.6761334603
H        4.6607667084    0.1921814349    2.3233653870
H        4.1803826744    1.7102790406    3.1258735723
H        2.0018035175    2.7941967106    0.3838262374
H        3.4302379738    2.2556895943   -0.5523616238
H        3.6080896400    3.3185303810    0.8605140330
H        0.1264772429   -0.8589159932    2.1791696366
H       -1.7875373910   -1.3135954249   -1.3516468019
24   

C        0.8545553517    0.5392732773   -0.7033484911
C        0.9511232026    0.2225589343    0.6341303995
C        2.1611559364    0.3669378195    1.5172742123
C       -0.3836397022    0.2194329126   -1.4845117870
C       -1.3903704477   -0.6355664962    0.6148366379
C        4.4096096610    1.2234259371    2.0695205384
C        2.9497849295    2.5023710205    0.4993161488
N       -0.1422757083   -0.3260517206    1.3089877850
N       -1.0832641824   -0.8735270300   -0.7954714706
N        3.1857179158    1.2922330414    1.2784424893
O        2.3074322175   -0.4429251178    2.4420687848
H        1.7206116844    0.8944489260   -1.2437912245
H       -1.0257973264    1.1034631829   -1.5475963442
H       -0.1096772946   -0.0912419027   -2.4982597729
H       -1.8432961462   -1.5328762179    1.0483606300
H       -2.0926418046    0.1984607846    0.7152334578
H        5.2059829011    1.8050169874    1.5946316504
H        4.7584555453    0.1884026667    2.1472283819
H        4.2327294108    1.6172911753    3.0754355663
H        1.8828103259    2.7442699260    0.4583502057
H        3.3372445777    2.3864394050   -0.5173223174
H        3.4474665619    3.3568325029    0.9693082701
H        0.0874521792   -0.8274920977    2.1668961409
H       -1.8967189650   -1.1996188870   -1.3062403248
24   

C        0.9436210761    0.4257579780   -0.7611443006
C        1.0312674614    0.1366857259    0.5817427391
C        2.2574305897    0.2582687243    1.4441232181
C       -0.3229007840    0.1779498314   -1.5227795900
C       -1.3832737519   -0.4790596760    0.6238928880
C        4.4700610650    1.2049071592    2.0026041722
C        2.8907585361    2.4952379955    0.5562218229
N       -0.1018706154   -0.2755722777    1.2970648927
N       -1.1179253212   -0.8078922374   -0.7767741727
N        3.2200074512    1.2565244639    1.2528441125
O        2.4973590552   -0.6518936649    2.2471732873
H        1.8320526964    0.7118300937   -1.3081645053
H       -0.8816533941    1.1124421735   -1.6334762977
H       -0.0835648803   -0.2100528818   -2.5185147704
H       -1.9240614126   -1.3042285790    1.0980968523
H       -1.9925571676    0.4280582358    0.6929320850
H        5.2213169363    1.8512985105    1.5381826157
H        4.8719255533    0.1864513326    2.0125444299
H        4.3060705820    1.5342570307    3.0335877365
H        1.8093742835    2.6656994026    0.5397409173
H        3.2681727347    2.4696789656   -0.4703693620
H        3.3359446401    3.3500426989    1.0755655773
H        0.0888191605   -0.7982130010    2.1506929612
H       -1.9639144951   -1.0784795431   -1.2667400077
24   

C        1.0053219413    0.2972013791   -0.8462069667
C        1.0902957799    0.0597069192    0.5055315142
C        2.3387490393    0.1581812290    1.3406767982
C       -0.2884600812    0.1202324907   -1.5813408771
C       -1.3724206321   -0.2997431819    0.6146682317
C        4.4923877231    1.2128544954    1.9424684779
C        2.7974997643    2.4899927210    0.6139557551
N       -0.0654517282   -0.2028933676    1.2626962066
N       -1.1664950554   -0.7332350557   -0.7673652946
N        3.2239929792    1.2347855257    1.2231035541
O        2.6758889284   -0.8240829976    2.0115199263
H        1.9079097504    0.4999027405   -1.4081763343
H       -0.7569463262    1.0945542424   -1.7514668772
H       -0.0990801602   -0.3534468737   -2.5504148878
H       -1.9928045768   -1.0328420287    1.1399338149
H       -1.8775960296    0.6713978607    0.6383594582
H        5.1904582593    1.9349085621    1.5075636303
H        4.9575681542    0.2238791017    1.8772875681
H        4.3327107817    1.4634853651    2.9960355647
H        1.7064840568    2.5815387426    0.6115074383
H        3.1652687678    2.5602743164   -0.4139974065
H        3.1830927785    3.3382591150    1.1886330271
H        0.0798459624   -0.7187977280    2.1280613508
H       -2.0430948688   -0.9459170559   -1.2314617740
24   

C        1.1003007061    0.1160620072   -0.9226686249
C        1.2061771978   -0.0042587318    0.4414424750
C        2.4897199671    0.0856591881    1.2286670509
C       -0.2243163548   -0.0233465009   -1.6092887593
C       -1.2721933489   -0.1434347193    0.6426343107
C        4.5301720941    1.2904392057    1.9441482958
C        2.7043205981    2.5122937805    0.7382365378
N        0.0569163519   -0.1177305528    1.2513642886
N       -1.1481000984   -0.7157697688   -0.6979509115
N        3.2516331348    1.2577046216    1.2434959284
O        2.9405758024   -0.9359865549    1.7568533046
H        2.0000669893    0.2097204931   -1.5173192713
H       -0.6155199673    0.9661349195   -1.8658085553
H       -0.1021399108   -0.6023588696   -2.5307618979
H       -1.9434672165   -0.7637223028    1.2449811933
H       -1.6822901709    0.8704237671    0.5889620853
H        5.1624982999    2.0896425767    1.5451744887
H        5.0712229316    0.3476199091    1.8137262020
H        4.3695350296    1.4640015195    3.0128996599
H        1.6099514719    2.4956661629    0.7193076387
H        3.0748371527    2.7098919032   -0.2719911039
H        2.9949594353    3.3400535755    1.3929609780
H        0.1778004863   -0.5849740931    2.1465632118
H       -2.0536296814   -0.8898532122   -1.1208347599
24   

C        1.1213090801   -0.2347142585   -1.0016455625
C        1.2612317145   -0.0472146695    0.3506390832
C        2.5810579282    0.0450680418    1.0808868911
C       -0.2303319099   -0.4129331551   -1.6224761376
C       -1.2122422513   -0.0512019247    0.6349598227
C        4.4070812726    1.3737186745    2.1149914603
C        2.4704156343    2.5258076131    1.0096020098
N        0.1335388426   -0.0175343011    1.2036228181
N       -1.1674575925   -0.8620699666   -0.5814704624
N        3.1311926353    1.2879169810    1.4108492415
O        3.1457933313   -0.9871518958    1.4546248944
H        2.0068126134   -0.3326727803   -1.6168158595
H       -0.5674140506    0.5375299333   -2.0488375826
H       -0.1734709807   -1.1552292454   -2.4254016115
H       -1.9064438524   -0.5020664577    1.3511103253
H       -1.5514749674    0.9649662828    0.4077744156
H        4.9908926967    2.2225439561    1.7457685475
H        5.0122015087    0.4751623592    1.9571972312
H        4.2355686980    1.4981239682    3.1885372601
H        1.9024546665    2.3975568563    0.0831987196
H        3.2089357385    3.3117152514    0.8236943276
H        1.7898496857    2.8606484992    1.7986729611
H        0.2573204217   -0.3607191568    2.1520745943
H       -2.0955673053   -1.0399704230   -0.9504024271
24   

C        1.1339163982   -0.5095643543   -1.0059183634
C        1.3283708612   -0.0800351267    0.2831999303
C        2.6825793926    0.0264942361    0.9474206146
C       -0.2410901893   -0.7288246313   -1.5574260917
C       -1.1376220907    0.0107195669    0.6393816336
C        4.3428795426    1.3104234279    2.2820585556
C        2.3425448778    2.4607391638    1.3112129022
N        0.2256671295    0.0643175537    1.1612096890
N       -1.1619685005   -0.9762914941   -0.4381883036
N        3.0857074863    1.2267885304    1.5452140413
O        3.3604047149   -0.9866916971    1.1418565748
H        1.9956200781   -0.7522665065   -1.6151572151
H       -0.5568229554    0.1595238470   -2.1147029805
H       -0.2347995886   -1.5842326971   -2.2406839932
H       -1.8278561232   -0.2933523908    1.4325401259
H       -1.4392667869    0.9960954289    0.2684981612
H        5.1434835647    1.6572850036    1.6212321612
H        4.6290312188    0.3409326224    2.7018455680
H        4.2425427072    2.0087707890    3.1185872131
H        1.8212321276    2.4362206932    0.3488793702
H        3.0255704322    3.3155783803    1.2812869950
H        1.6100317302    2.6191497998    2.1085006364
H        0.3694229679   -0.1549395699    2.1424233145
H       -2.1071627119   -1.1623454669   -0.7561824588
24   

C        1.3061275364   -0.6191579104   -0.9698337765
C        1.5110209859   -0.0723983829    0.2735759628
C        2.8831141389    0.1112131348    0.8796423121
C       -0.0679945019   -0.9228033107   -1.4815179058
C       -0.9567437679   -0.0200877983    0.6520838911
C        4.4748889105    1.3424020544    2.3234206685
C        2.3743600715    2.4560324507    1.5437333477
N        0.4105884925    0.1039490798    1.1504319728
N       -0.9687619191   -1.0979924765   -0.3333326841
N        3.1919444996    1.2499175573    1.6352305870
O        3.6976910643   -0.8163375132    0.8703464555
H        2.1662800524   -0.8901892114   -1.5698018590
H       -0.4146679568   -0.0943636985   -2.1084180568
H       -0.0449475778   -1.8329570612   -2.0895079616
H       -1.6328059693   -0.2670873161    1.4766407900
H       -1.2818228072    0.9228146127    0.1995080469
H        5.2654892843    1.6041338108    1.6129856940
H        4.7270011995    0.3918312367    2.8044987525
H        4.4339492214    2.1067022588    3.1057262457
H        1.7741920723    2.4645824786    0.6282169841
H        3.0133433666    3.3441709284    1.5095821446
H        1.7062983475    2.5303759613    2.4068589931
H        0.5687851918   -0.0196047764    2.1456559971
H       -1.9124003432   -1.3317601556   -0.6231876678
24   

C       -0.1342330405    0.6855485292    0.6275538913
C        1.2057588728    0.4101298231    0.4873261585
C        2.2644390786    1.1339570470    1.2817625756
C       -1.1714800873    0.0619597479   -0.2540029664
C        0.6610930050   -1.1856155103   -1.3593422544
C        4.5390834369    1.3407975880    2.2239777744
C        3.6521295626   -0.9117061566    1.6065386464
N        1.6310827222   -0.4164764492   -0.5841634116
N       -0.5315484626   -0.3574139034   -1.5084418760
N        3.4961877228    0.5399485332    1.5917852688
O        2.1146075007    2.3249142941    1.5702844548
H       -0.4411015671    1.4214021124    1.3612416383
H       -1.6080993296   -0.8045354266    0.2538931393
H       -1.9687752308    0.7843640545   -0.4566875161
H        1.0734626133   -1.4193191875   -2.3458993302
H        0.4215706797   -2.1225652474   -0.8452098489
H        4.2652229192    1.5675057019    3.2594434546
H        4.6839277225    2.2790572811    1.6786139665
H        5.4923863421    0.8030759206    2.2206141910
H        4.1912149083   -1.2235846476    2.5067326934
H        4.2068522034   -1.2465109235    0.7252838569
H        2.6824079252   -1.4187474089    1.6330354731
H        2.5331570926   -0.2232526226   -1.0073612245
H       -1.1970815112   -0.7691436340   -2.1539384233
24   

C       -0.1977196841    0.6778799635    0.5102813158
C        1.1394761991    0.3586140981    0.4373379877
C        2.1743083608    1.0792362928    1.2626124855
C       -1.2218933787    0.0441817431   -0.3792745156
C        0.5979766199   -1.3459219887   -1.3141354485
C        4.4586582978    1.4058820038    2.1408528543
C        3.7115492548   -0.8778392860    1.4726514351
N        1.5679688609   -0.5630823864   -0.5527018493
N       -0.5471735819   -0.4801157114   -1.5741914008
N        3.4558814177    0.5590629469    1.5025013364
O        1.9348004482    2.2105146512    1.6951487951
H       -0.5124251392    1.4561542112    1.1955496578
H       -1.7196862913   -0.7688339049    0.1597027308
H       -1.9756393156    0.7857967519   -0.6631465702
H        1.0402305401   -1.6674060393   -2.2623050359
H        0.2945863296   -2.2320559258   -0.7464223318
H        4.2065750913    1.5619018979    3.1947340823
H        4.5123812028    2.3774281704    1.6386859402
H        5.4491491909    0.9443989515    2.0781987842
H        4.3362203287   -1.1675831094    2.3236046978
H        4.2218911157   -1.1587337896    0.5468841567
H        2.7819981059   -1.4489097113    1.5624739686
H        2.4930914208   -0.4383706766   -0.9503206576
H       -1.2018296451   -0.9064141682   -2.2213720851
24   

C       -0.2014678745    0.7301428370    0.5224363968
C        1.1217869391    0.3453356131    0.5089160721
C        2.1446417033    1.0133686579    1.3920490474
C       -1.2222542186    0.1336600547   -0.3963903575
C        0.5420455504   -1.4007867716   -1.1923043110
C        4.4286960713    1.3884047482    2.2485228588
C        3.7921279654   -0.8734534435    1.4247041114
N        1.5279672549   -0.6479666741   -0.4211244648
N       -0.5290664165   -0.4740000008   -1.5397545466
N        3.4564160077    0.5396547588    1.5656709987
O        1.8489117084    2.0521185234    1.9901319308
H       -0.5075159353    1.5336260471    1.1821543183
H       -1.7981680845   -0.6258883067    0.1426583586
H       -1.9105586553    0.9126177137   -0.7402698924
H        1.0022021544   -1.7919398285   -2.1051163049
H        0.1558402804   -2.2390464428   -0.6026058097
H        4.2079091470    1.4315496803    3.3198878408
H        4.4027723136    2.4031709020    1.8376487359
H        5.4431607352    1.0016483681    2.1097507559
H        4.4967709982   -1.1738481703    2.2067368758
H        4.2470843739   -1.0665429690    0.4489149043
H        2.9065374614   -1.5043348741    1.5503695383
H        2.4718486536   -0.5955072717   -0.7883539281
H       -1.1802038321   -0.8827502207   -2.2016680597
24   

C       -0.1964791626    0.7520917019    0.4798413333
C        1.1042245176    0.2970928691    0.5409100342
C        2.1042574706    0.9249758844    1.4829106116
C       -1.2097040404    0.1822432673   -0.4643180918
C        0.4715703658   -1.5169071417   -1.0729328762
C        4.3624117819    1.3529214390    2.3831609584
C        3.8866149166   -0.8451366715    1.3197100240
N        1.4769265405   -0.7813416147   -0.3107451806
N       -0.5081740784   -0.5403872130   -1.5329642925
N        3.4411664870    0.5094135129    1.6254100448
O        1.7487609024    1.8587199194    2.2082778835
H       -0.4895672996    1.5917264799    1.0992088802
H       -1.8717087254   -0.4991367559    0.0802155451
H       -1.8154124500    0.9900436544   -0.8879226623
H        0.9391065301   -2.0053541131   -1.9336100355
H       -0.0018856576   -2.2796122435   -0.4454387669
H        4.1660011698    1.2609139657    3.4560717249
H        4.2489259064    2.4016200803    2.0883890259
H        5.4002609708    1.0676763668    2.1844426145
H        4.6903973400   -1.1415125505    2.0012135370
H        4.2608126564   -0.9068263958    0.2936990181
H        3.0784343123   -1.5674602969    1.4703932630
H        2.4314954047   -0.8105153306   -0.6494725383
H       -1.1555640795   -0.9437962012   -2.2018264282
