39   

C        2.6418317263   -0.4562298080    1.0319763046
C        1.3827128496   -0.9359432659    1.4559287390
C        2.7321177169    0.5501706674    0.0486366290
C       -0.1243244413    2.1194960451   -1.6123080311
C        0.3544120209    0.5715752063   -0.0696779631
C        0.2030781415   -0.4074195928    0.8989604350
C       -0.7134464525    1.2222235096   -0.7545032490
C        1.5569924626    1.0606072274   -0.5018018211
C       -1.3298552714   -2.2499502124    1.7645543328
C       -2.3825657787   -2.8596931459    2.3936589796
C       -2.1415525838    0.8340221266   -0.4655073987
C       -1.2119868786   -0.8221075639    1.2718450525
C       -2.1821124048   -0.6236306459    0.0666429317
C       -2.6021736198   -2.9116194169    3.8950822029
C       -2.8563293919   -1.9002691945   -1.9912663302
C       -3.1008345126   -3.9249236543    1.6017651902
N        1.2814543092    2.0350782183   -1.4682392706
N       -1.8102581042   -1.5542106091   -1.0206596912
O       -4.4223632255   -3.4821683924    1.2892131340
H        3.5464830294   -0.8627096619    1.4691569138
H        1.3291784539   -1.7039901105    2.2181112131
H        3.6950035027    0.9235282280   -0.2756553088
H       -0.6644400565    2.7753814029   -2.2879829757
H       -0.7317341007   -2.9076830494    1.1431753603
H       -2.5417971696    1.5086715602    0.2969408551
H       -2.7582794980    0.9337541168   -1.3627792048
H       -1.5393811168   -0.1627314414    2.0811916860
H       -3.2011749275   -0.8554581718    0.3942336366
H       -3.4401347974   -3.5679059961    4.1496989061
H       -1.7005085621   -3.2804304486    4.3926311029
H       -2.8248591323   -1.9083626150    4.2697670145
H       -3.7275188761   -2.3135597047   -1.4725728345
H       -3.1671006657   -1.0183850128   -2.5592348937
H       -2.4805783311   -2.6529135664   -2.6911478208
H       -2.5576706348   -4.1517813596    0.6784080348
H       -3.1571608026   -4.8478372118    2.1882149273
H        1.9788031085    2.5805071136   -1.9654408703
H       -0.9278589041   -1.2648433135   -1.4437970840
H       -4.8788249211   -4.1356741038    0.7311552947
39   

C        2.6483998041   -0.5602103354    1.0497541490
C        1.3860082239   -1.0620540421    1.4374505205
C        2.7472755851    0.4814633976    0.1045006174
C       -0.0940262245    2.0887984969   -1.5462568607
C        0.3720912832    0.4923792481   -0.0499726742
C        0.2119524206   -0.5198224266    0.8823755447
C       -0.6894510574    1.1575909454   -0.7300777664
C        1.5775729580    1.0040262195   -0.4458901329
C       -1.3188092519   -2.3820165353    1.6981444026
C       -2.2990758035   -2.9050351691    2.4824359463
C       -2.1180175218    0.7460767376   -0.4800334705
C       -1.2067046550   -0.9519097501    1.2189354489
C       -2.1538862350   -0.7313278520   -0.0008886030
C       -2.4223235399   -2.6646791710    3.9762530122
C       -2.7183229805   -1.8614866602   -2.1804611233
C       -2.9534564712   -4.1671329593    1.9760602481
N        1.3098151760    2.0100082136   -1.3818617859
N       -1.7468020111   -1.6283822018   -1.1034668332
O       -4.3554470736   -4.1391145561    2.2548944208
H        3.5490509184   -0.9768345007    1.4856446481
H        1.3258566591   -1.8574145182    2.1706132476
H        3.7125108001    0.8719449446   -0.1914913013
H       -0.6284089188    2.7632616851   -2.2081159459
H       -0.8471474134   -3.0679723652    1.0023163953
H       -2.5368266100    1.3889012079    0.2998372763
H       -2.7215530253    0.8764725501   -1.3820515927
H       -1.5554234573   -0.3046497744    2.0294322792
H       -3.1771992787   -0.9835648557    0.2967812652
H       -3.3517991778   -2.1289415796    4.1899045372
H       -2.4305416474   -3.6135991696    4.5208084187
H       -1.5813909776   -2.0643620102    4.3359888014
H       -3.6667616245   -2.2159112442   -1.7641336217
H       -2.8994232213   -0.9428617478   -2.7464974520
H       -2.3350872921   -2.6218071971   -2.8679393864
H       -2.7959105374   -4.2744514321    0.8977903492
H       -2.5031762421   -5.0329869322    2.4723110927
H        2.0105669862    2.5780739543   -1.8480565091
H       -0.8210568213   -1.3623090446   -1.4417999646
H       -4.7910322767   -4.9411918934    1.9167559733
39   

C        2.5940375021   -0.6402022405    1.0611538790
C        1.3233021562   -1.1538313509    1.4038680270
C        2.7131891796    0.4417462626    0.1645921678
C       -0.0928599337    2.1291882871   -1.4666184077
C        0.3414808692    0.4682497763   -0.0320745725
C        0.1613686015   -0.5828678601    0.8525579662
C       -0.7055101964    1.1653348940   -0.7028573449
C        1.5553237898    0.9923386734   -0.3834382900
C       -1.3907018844   -2.4670903901    1.5668884032
C       -2.2811056935   -2.9539356378    2.4610008752
C       -2.1392215411    0.7466963224   -0.4990274085
C       -1.2645337578   -1.0226559948    1.1442841531
C       -2.1860548163   -0.7500289172   -0.0847868295
C       -2.3619495455   -2.5104929690    3.9082778400
C       -2.7098889076   -1.7813631045   -2.3229240856
C       -2.8873797261   -4.3013745403    2.1528495156
N        1.3074351335    2.0389902149   -1.2795579711
N       -1.7598583689   -1.5995689619   -1.2171275780
O       -4.2773704188   -4.2986954515    2.4877421951
H        3.4854488942   -1.0791749776    1.4940414399
H        1.2470337062   -1.9808131993    2.0995885610
H        3.6847625078    0.8411169119   -0.0967576997
H       -0.6132422824    2.8329390052   -2.1088700889
H       -1.0149757319   -3.1563045146    0.8179932115
H       -2.5724550732    1.3562811001    0.2994532145
H       -2.7247833771    0.9172623616   -1.4061703698
H       -1.6284738546   -0.4010333983    1.9679742256
H       -3.2153697283   -1.0120876483    0.1820884158
H       -3.2956015423   -1.9660732449    4.0771661785
H       -2.3338737148   -3.3748438331    4.5785272893
H       -1.5226001052   -1.8535423668    4.1552506994
H       -3.6679938587   -2.1493152582   -1.9419571251
H       -2.8761354094   -0.8382688328   -2.8520567332
H       -2.3153511767   -2.5128311258   -3.0348650926
H       -2.7670790791   -4.5449093305    1.0922415844
H       -2.3753244369   -5.0719985876    2.7381004089
H        2.0180798638    2.6242968800   -1.7079025542
H       -0.8262538348   -1.3235229985   -1.5245488534
H       -4.6866435500   -5.1561060180    2.2760714181
39   

C        2.5426216909   -0.7219962553    1.1327407372
C        1.2573748001   -1.2350645086    1.4174953909
C        2.6992903593    0.3888451057    0.2782267553
C       -0.0390315541    2.1555710378   -1.3837794265
C        0.3354821537    0.4442355746    0.0078997102
C        0.1183168227   -0.6346387220    0.8499985768
C       -0.6835006519    1.1720526716   -0.6731926611
C        1.5641321540    0.9687208455   -0.2867148998
C       -1.4668023473   -2.5245908052    1.4537128684
C       -2.2368302741   -3.0125051598    2.4468744369
C       -2.1257058131    0.7575435778   -0.5318938967
C       -1.3198745328   -1.0719563784    1.0790533934
C       -2.1951175523   -0.7527835293   -0.1728840264
C       -2.3073527933   -2.4247833821    3.8392619565
C       -2.6418754040   -1.6878641747   -2.4696824302
C       -2.7584164596   -4.4204197918    2.2880366607
N        1.3536291713    2.0470466702   -1.1544596269
N       -1.7362368411   -1.5655907210   -1.3191793975
O       -4.1190253371   -4.4891147229    2.7227045954
H        3.4161940496   -1.1842471541    1.5775705075
H        1.1521523104   -2.0851847866    2.0808107241
H        3.6819935210    0.7874527261    0.0610565335
H       -0.5327715066    2.8843732696   -2.0191032163
H       -1.1757749022   -3.2106049395    0.6653181326
H       -2.5812689811    1.3417853468    0.2731103840
H       -2.6799289127    0.9649440842   -1.4509373142
H       -1.7095273768   -0.4671126140    1.9030620320
H       -3.2347104872   -1.0160259748    0.0491258529
H       -3.2550695894   -1.8943728571    3.9701074852
H       -2.2416162142   -3.2146150463    4.5936154722
H       -1.4840712494   -1.7235389370    4.0048821248
H       -3.6235609762   -2.0453656977   -2.1426171490
H       -2.7639811335   -0.7239598950   -2.9727356427
H       -2.2334711461   -2.4041365304   -3.1891894530
H       -2.6936293310   -4.7408397534    1.2432321233
H       -2.1500462834   -5.1026107850    2.8904480876
H        2.0823626671    2.6397400263   -1.5401339518
H       -0.7865529936   -1.2940133740   -1.5776207410
H       -4.4765749745   -5.3868225000    2.6053058505
39   

C        2.4342899152   -0.8426016593    1.2746363996
C        1.1258851101   -1.3362706778    1.4759886882
C        2.6584368543    0.2867008708    0.4603644617
C        0.0495515698    2.1497377648   -1.3013523926
C        0.3142865764    0.3979210086    0.0651857970
C        0.0306823371   -0.6977390031    0.8651228923
C       -0.6513381215    1.1620058326   -0.6527848394
C        1.5669773763    0.9043925230   -0.1486967137
C       -1.6136030534   -2.5713239554    1.3361124561
C       -2.1711798346   -3.0643541869    2.4555106373
C       -2.1058208566    0.7709228463   -0.6039727319
C       -1.4258733744   -1.1143260144    1.0000419385
C       -2.2200573605   -0.7475708115   -0.2931337574
C       -2.1338312311   -2.3903931638    3.8073593357
C       -2.5489227734   -1.6008438231   -2.6412667005
C       -2.6316834965   -4.5028670645    2.4273420874
N        1.4250063663    2.0079630755   -0.9984756691
N       -1.7121418804   -1.5366276501   -1.4350686983
O       -3.8923364284   -4.6308077878    3.0908992798
H        3.2734836217   -1.3349850059    1.7520877340
H        0.9690803461   -2.2023542793    2.1077163132
H        3.6590402139    0.6698847289    0.3063808784
H       -0.3944795797    2.9030183041   -1.9447657889
H       -1.4952789121   -3.2501867403    0.4983746642
H       -2.5956439478    1.3408794115    0.1911319278
H       -2.6042511235    1.0145842372   -1.5457583250
H       -1.8559577681   -0.5175323732    1.8094832489
H       -3.2751066843   -0.9968733442   -0.1382260673
H       -3.0812730136   -1.8756267982    3.9918570266
H       -1.9773351295   -3.1284900754    4.5998546356
H       -1.3187393916   -1.6623214947    3.8563324776
H       -3.5580968763   -1.9389238635   -2.3847569682
H       -2.6141604177   -0.6202325392   -3.1221365022
H       -2.1168957714   -2.3081612435   -3.3557850573
H       -2.7289709301   -4.8572553251    1.3961902635
H       -1.8898229593   -5.1297699026    2.9322167832
H        2.1850394489    2.5946959764   -1.3288941192
H       -0.7421608278   -1.2820590901   -1.6274371730
H       -4.2082166732   -5.5511714954    3.0640983857
39   

C        2.2261016521   -0.8838082945    1.3125481977
C        0.9044645445   -1.3609134894    1.4583029194
C        2.4955581279    0.2559996111    0.5278075907
C       -0.0192359739    2.1837290982   -1.2985045248
C        0.1685100561    0.4092693941    0.0516139269
C       -0.1606797945   -0.6941247454    0.8232537732
C       -0.7579301023    1.1970284477   -0.6915560869
C        1.4356488983    0.8997327111   -0.1089322471
C       -1.8506844037   -2.5446924085    1.2229462401
C       -2.1322027259   -3.0578817331    2.4311177208
C       -2.2177218994    0.8244573296   -0.7064556355
C       -1.6292546273   -1.0894833980    0.8992217976
C       -2.3644694619   -0.6966837526   -0.4211788086
C       -1.9683770886   -2.3294844042    3.7428514317
C       -2.5935046685   -1.4989434304   -2.7999189063
C       -2.4969905071   -4.5229602312    2.4998700055
N        1.3415342391    2.0178694183   -0.9460077225
N       -1.8214909161   -1.4815181140   -1.5496790862
O       -3.5940619066   -4.7230187893    3.3960734634
H        3.0403909293   -1.3979860771    1.8097639591
H        0.7163144048   -2.2375477284    2.0661323373
H        3.5065749934    0.6262602698    0.4160438282
H       -0.4276527370    2.9517695195   -1.9479946519
H       -1.9215758523   -3.2095624669    0.3688317026
H       -2.7316448898    1.3905752706    0.0760807172
H       -2.6747925878    1.0877376818   -1.6637780262
H       -2.0833078951   -0.4922819525    1.6953395454
H       -3.4284697675   -0.9319534724   -0.3128243584
H       -2.9224860902   -1.8862115876    4.0426844308
H       -1.6440535943   -3.0212381863    4.5261961892
H       -1.2192577343   -1.5366874844    3.6632737246
H       -3.6275663058   -1.7997129145   -2.6030741246
H       -2.5939275777   -0.5110914506   -3.2703309420
H       -2.1508194078   -2.2143298419   -3.4997250452
H       -2.7704911662   -4.8992943815    1.5090109025
H       -1.6315306613   -5.0939095595    2.8507342453
H        2.1219417819    2.5975992009   -1.2392001428
H       -0.8353587631   -1.2540801194   -1.6863739689
H       -3.8473464855   -5.6622122809    3.4330227506
39   

C        2.1666410914   -0.9302706039    1.3308562875
C        0.8337921696   -1.3771743379    1.4683103030
C        2.4684618212    0.1936980137    0.5356650578
C        0.0153106252    2.1516353184   -1.3406439820
C        0.1498108876    0.3906995695    0.0333532354
C       -0.2114440824   -0.6958611525    0.8146135026
C       -0.7511335812    1.1887576160   -0.7297061254
C        1.4290254251    0.8517894985   -0.1196109816
C       -1.9442422094   -2.5047657551    1.2187223705
C       -2.0847103866   -3.0252741850    2.4480079235
C       -2.2182598383    0.8472318492   -0.7565229107
C       -1.6899643422   -1.0594451153    0.8787740914
C       -2.4011157431   -0.6669758932   -0.4549010377
C       -2.0129041052   -2.2471997726    3.7383104210
C       -2.6161398750   -1.4891614981   -2.8282788140
C       -2.3034905105   -4.5178045538    2.5533872460
N        1.3682810799    1.9610659617   -0.9712097707
N       -1.8621100400   -1.4774173197   -1.5670280738
O       -3.3464577723   -4.8093383389    3.4887530042
H        2.9644519978   -1.4558835885    1.8426513809
H        0.6235757810   -2.2424995447    2.0846760992
H        3.4883380341    0.5407321076    0.4300536450
H       -0.3691774500    2.9199594114   -2.0042161516
H       -2.0550633024   -3.1755145294    0.3735180738
H       -2.7283624870    1.4337694512    0.0133615603
H       -2.6589170120    1.1088087541   -1.7219646120
H       -2.1410475234   -0.4433011291    1.6618731366
H       -3.4711676743   -0.8778567041   -0.3565650165
H       -3.0055087871   -1.8685458672    3.9992178552
H       -1.6588195251   -2.8869249023    4.5524256092
H       -1.3223189529   -1.4036326971    3.6525284471
H       -3.6608341239   -1.7591229060   -2.6432962035
H       -2.5825045997   -0.5075091890   -3.3103446030
H       -2.1831207498   -2.2248379387   -3.5129278584
H       -2.5715081125   -4.9381803048    1.5788955289
H       -1.3751682670   -4.9955819424    2.8818677655
H        2.1643426168    2.5198424781   -1.2630145016
H       -0.8687243735   -1.2761729038   -1.6918783668
H       -3.5073558342   -5.7677628282    3.5446216011
39   

C        2.1522004001   -1.0043605166    1.3605116880
C        0.8113324072   -1.4225519373    1.5093053898
C        2.4724984808    0.1051357154    0.5524707497
C        0.0490128604    2.0981656166   -1.3252987130
C        0.1554172075    0.3448550585    0.0607246481
C       -0.2233425147   -0.7280777448    0.8523600166
C       -0.7335974931    1.1561771676   -0.7023047995
C        1.4429333573    0.7785213915   -0.1028737013
C       -1.9801523035   -2.5057105160    1.2663147242
C       -2.0703956355   -3.0376041043    2.4969322104
C       -2.2079865107    0.8462404299   -0.7153836581
C       -1.7077695713   -1.0651672915    0.9235937640
C       -2.4201198084   -0.6626552771   -0.4065538502
C       -2.2329525656   -2.2585620071    3.7783441956
C       -2.6763229608   -1.4904245042   -2.7731543414
C       -2.1004612830   -4.5467288841    2.6013688650
N        1.4000813765    1.8819043885   -0.9630712165
N       -1.9065793435   -1.4857622255   -1.5213176888
O       -3.1687095388   -4.9749211272    3.4522489245
H        2.9418507963   -1.5409295618    1.8736101219
H        0.5874260425   -2.2761546275    2.1369513401
H        3.4986820861    0.4300700599    0.4380048561
H       -0.3235294523    2.8699548501   -1.9916420895
H       -2.0361824142   -3.1827390009    0.4207707574
H       -2.6987897282    1.4463358546    0.0565977510
H       -2.6510795243    1.1137525842   -1.6780787504
H       -2.1435642209   -0.4403592122    1.7080459980
H       -3.4934484966   -0.8515257761   -0.2995829032
H       -3.2791985228   -1.9655934632    3.9055531134
H       -1.9323971364   -2.8634882338    4.6392430406
H       -1.6089661020   -1.3605032092    3.7697795113
H       -3.7226146492   -1.7438386890   -2.5741932987
H       -2.6341125982   -0.5109974093   -3.2590656849
H       -2.2631880829   -2.2349000922   -3.4605420752
H       -2.2310796828   -5.0000606348    1.6136563132
H       -1.1468953221   -4.8984471210    3.0073649850
H        2.2058379992    2.4216327907   -1.2639990883
H       -0.9117792351   -1.3005881632   -1.6587765980
H       -3.2073860605   -5.9462723938    3.5026238046
39   

C        2.1967030443   -1.0598513380    1.2909429398
C        0.8540683540   -1.4548890657    1.4808090079
C        2.5111562225    0.0416198114    0.4696744977
C        0.0652656984    2.0725911294   -1.3375893961
C        0.1846461607    0.3190467668    0.0463143922
C       -0.1875588357   -0.7459347837    0.8509367408
C       -0.7139658181    1.1447693803   -0.6893843654
C        1.4737450170    0.7307945366   -0.1565908754
C       -1.9425931986   -2.5022902916    1.3089161979
C       -2.0738799062   -3.0293370314    2.5407563847
C       -2.1935997188    0.8606635288   -0.6537150650
C       -1.6734229624   -1.0608965791    0.9666018944
C       -2.4223081915   -0.6446811283   -0.3384668030
C       -2.6049840736   -2.2953336437    3.7477466576
C       -2.7748155246   -1.4695742122   -2.6928326404
C       -1.8638718481   -4.5216857463    2.6825831277
N        1.4231354872    1.8334765134   -1.0171344460
N       -1.9586998271   -1.4733510295   -1.4707173285
O       -2.9739756830   -5.1322647346    3.3489869017
H        2.9921708492   -1.6076546985    1.7827799978
H        0.6335159242   -2.3013748732    2.1193398825
H        3.5387811884    0.3490091939    0.3239018727
H       -0.3143190977    2.8506486254   -1.9925479903
H       -1.8354737097   -3.1903014829    0.4772450069
H       -2.6479328473    1.4687204202    0.1341906980
H       -2.6632843038    1.1368044121   -1.6012512200
H       -2.0715801671   -0.4343484721    1.7687623917
H       -3.4944633929   -0.8163265498   -0.1965753777
H       -3.6809214076   -2.1303776141    3.6393834296
H       -2.4300725542   -2.8702072503    4.6622292229
H       -2.1053204518   -1.3298868570    3.8641894576
H       -3.8151154845   -1.7139754319   -2.4549688711
H       -2.7423131802   -0.4898545031   -3.1789201054
H       -2.3944220943   -2.2167057838   -3.3960357422
H       -1.7414338202   -4.9895314562    1.7006069876
H       -0.9487027082   -4.7036141518    3.2544709620
H        2.2283217187    2.3592407853   -1.3432975012
H       -0.9680325989   -1.2981679649   -1.6453955360
H       -2.8543927196   -6.0958817721    3.4171257590
39   

C        2.1865283130   -1.1118326028    1.2496509389
C        0.8389845443   -1.4769476229    1.4620225513
C        2.5113451289   -0.0192236341    0.4210099912
C        0.0810546182    2.0639907326   -1.3468311266
C        0.1843655383    0.3085702147    0.0355780106
C       -0.1978148663   -0.7470773487    0.8474542039
C       -0.7079641994    1.1545242421   -0.6843618224
C        1.4788708896    0.6913936701   -0.1892308545
C       -1.9770027743   -2.4691555298    1.3323553364
C       -2.0797837011   -2.9874852109    2.5749779914
C       -2.1931483515    0.9054809718   -0.6203805605
C       -1.6884928809   -1.0296828515    0.9891838350
C       -2.4524189371   -0.5939770754   -0.3002259400
C       -2.8481250033   -2.3492850222    3.7085449080
C       -2.8665272108   -1.4103258006   -2.6475591691
C       -1.6614998868   -4.4309193594    2.7595506139
N        1.4385517337    1.7941510684   -1.0499563460
N       -2.0288011418   -1.4330295275   -1.4403971606
O       -2.7172120641   -5.2005553074    3.3452630965
H        2.9777068597   -1.6756565613    1.7302304904
H        0.6121229018   -2.3164796479    2.1070849583
H        3.5429391970    0.2654891056    0.2581682376
H       -0.2918130450    2.8507486478   -1.9951792773
H       -1.7949556817   -3.1591500790    0.5153998110
H       -2.6177075838    1.5242818597    0.1757002769
H       -2.6737980509    1.1929018028   -1.5590214344
H       -2.0544501908   -0.4008331515    1.8049169051
H       -3.5254209134   -0.7406593258   -0.1383617433
H       -3.9195483003   -2.3683828713    3.4884178751
H       -2.6743025840   -2.8823563679    4.6482659081
H       -2.5336037217   -1.3121718910    3.8518113203
H       -3.9077742054   -1.6304004091   -2.3908984045
H       -2.8198717434   -0.4316589813   -3.1346282211
H       -2.5163084093   -2.1661355694   -3.3571418557
H       -1.3916950481   -4.8791465616    1.7980414667
H       -0.7779827216   -4.4705107998    3.4040143859
H        2.2498199514    2.3013856820   -1.3901292683
H       -1.0378064691   -1.2806950195   -1.6333917814
H       -2.4618004273   -6.1356033796    3.4341502680
39   

C        2.1429677082   -1.1426896189    1.2569956047
C        0.7862294028   -1.4679054323    1.4740365286
C        2.4966655237   -0.0610336851    0.4265800124
C        0.1231015892    2.0936422823   -1.3311036731
C        0.1782999780    0.3346265906    0.0496084878
C       -0.2323906717   -0.7096031739    0.8625911371
C       -0.6906077770    1.2082489317   -0.6657106000
C        1.4830111378    0.6789400663   -0.1798923363
C       -2.0664728464   -2.3818022609    1.3527607826
C       -2.1058579612   -2.9123392617    2.5994998578
C       -2.1824524424    1.0059187111   -0.5942523597
C       -1.7315239564   -0.9484700837    1.0096575132
C       -2.4874068613   -0.4849998696   -0.2748856004
C       -3.0202441777   -2.4268648417    3.7029087284
C       -2.9344005716   -1.2837289625   -2.6227920208
C       -1.5083439540   -4.2929866577    2.7783265282
N        1.4729450039    1.7825163836   -1.0401210657
N       -2.0943464361   -1.3347153389   -1.4181434872
O       -2.4564795400   -5.1973772075    3.3562784409
H        2.9188294589   -1.7288273616    1.7359080394
H        0.5409905931   -2.2990651268    2.1219184036
H        3.5356049548    0.1933392389    0.2602439190
H       -0.2281134127    2.8921569872   -1.9771169745
H       -1.8838691802   -3.0665748282    0.5314952314
H       -2.5831869753    1.6366349300    0.2047920800
H       -2.6583851756    1.3097413527   -1.5301304785
H       -2.0739630381   -0.3163098759    1.8338126001
H       -3.5637625126   -0.5984764160   -0.1088317662
H       -4.0529453704   -2.7140606020    3.4832767913
H       -2.7313340404   -2.8588384852    4.6660812964
H       -2.9688238598   -1.3380865924    3.7902502579
H       -3.9814236412   -1.4705943843   -2.3633928748
H       -2.8575801205   -0.3065514540   -3.1090239094
H       -2.6105656526   -2.0496076691   -3.3341317476
H       -1.1822140138   -4.6967042009    1.8145087186
H       -0.6277877487   -4.2241885408    3.4242003961
H        2.2980178026    2.2650636297   -1.3830256703
H       -1.0996606931   -1.2134580925   -1.6142029454
H       -2.0859620619   -6.0943556853    3.4309295807
39   

C        2.1137917132   -1.1422485272    1.2666626044
C        0.7523997060   -1.4348611891    1.4983166990
C        2.4839385971   -0.0969786965    0.3989023621
C        0.1450132395    2.0456730741   -1.4162440808
C        0.1707609907    0.3281026200    0.0171193010
C       -0.2569184375   -0.6829230074    0.8635796923
C       -0.6831727531    1.1980370465   -0.7200925511
C        1.4811662872    0.6404830522   -0.2275486282
C       -2.1359685346   -2.3103071038    1.3994249545
C       -2.1105886607   -2.8590092058    2.6482842726
C       -2.1781785841    1.0312711275   -0.6333880937
C       -1.7615495494   -0.8922936853    1.0204140888
C       -2.5127202699   -0.4434881395   -0.2731335685
C       -3.1377547199   -2.5669604730    3.7235880448
C       -2.9873127033   -1.2914401092   -2.5991163049
C       -1.3421192065   -4.1553845532    2.8070567962
N        1.4895987127    1.7161577677   -1.1220047596
N       -2.1428856461   -1.3289296953   -1.3970355906
O       -2.1995095500   -5.2142897638    3.2485260154
H        2.8803997109   -1.7252003886    1.7640830741
H        0.5001843067   -2.2358675029    2.1781125150
H        3.5267216482    0.1326496410    0.2210404954
H       -0.1929698496    2.8316343158   -2.0842722579
H       -1.9894965913   -3.0031527154    0.5775933846
H       -2.5592349237    1.6913960639    0.1513635332
H       -2.6537152950    1.3208069524   -1.5739873428
H       -2.0908366337   -0.2382957259    1.8334435066
H       -3.5905339074   -0.5297079690   -0.1003615619
H       -4.1162219571   -2.9493115252    3.4175636958
H       -2.8565022463   -3.0336435571    4.6727715924
H       -3.2159291829   -1.4875335354    3.8823153793
H       -4.0370413685   -1.4475041270   -2.3304902301
H       -2.8906458987   -0.3297781501   -3.1119991305
H       -2.6841497451   -2.0834374238   -3.2907119609
H       -0.8874242770   -4.4471554373    1.8548283869
H       -0.5343353935   -4.0118271830    3.5309652963
H        2.3227848108    2.1707800920   -1.4829924481
H       -1.1467256593   -1.2342848288   -1.6001533557
H       -1.7142271567   -6.0554557749    3.3145076236
39   

C        2.0756687935   -1.0857548684    1.3672446788
C        0.7053406548   -1.3304658042    1.5997495747
C        2.4805304508   -0.1043464197    0.4437174175
C        0.2169717924    2.0034588874   -1.4994806817
C        0.1814223243    0.3544121537    0.0134108995
C       -0.2816614516   -0.6022178856    0.9052174586
C       -0.6402625236    1.2145209252   -0.7703043217
C        1.5022644050    0.6212201435   -0.2321246426
C       -2.2372253735   -2.1663169520    1.4674531238
C       -2.1432021567   -2.7817115859    2.6928457439
C       -2.1392599519    1.1019675326   -0.6824214936
C       -1.7951592211   -0.7739116733    1.0488081655
C       -2.5198480739   -0.3464712446   -0.2695571003
C       -3.2081754624   -2.7165210859    3.7733487859
C       -3.0110245749   -1.2625163160   -2.5670210640
C       -1.2591624246   -4.0121365545    2.7487653510
N        1.5489964209    1.6495701370   -1.1790975190
N       -2.1700341394   -1.2786226047   -1.3619661099
O       -2.0289160690   -5.1918323230    3.0094766642
H        2.8221117558   -1.6548477738    1.9094237902
H        0.4332281877   -2.0735429484    2.3323566951
H        3.5304451856    0.0893939681    0.2651544117
H       -0.0931743259    2.7678839526   -2.2049016702
H       -2.2529199567   -2.8571834206    0.6312358743
H       -2.5001121824    1.8025759436    0.0763378525
H       -2.6028115061    1.3716129996   -1.6348376194
H       -2.1193222524   -0.0848655319    1.8344568219
H       -3.6012201735   -0.3933631408   -0.1039018566
H       -4.1582534254   -3.0936601414    3.3831040321
H       -2.9246655260   -3.3095564833    4.6484683445
H       -3.3469576363   -1.6798504700    4.0934759519
H       -4.0649180534   -1.3817591053   -2.2957636294
H       -2.8887706154   -0.3227369122   -3.1138418830
H       -2.7273829896   -2.0865143278   -3.2288672582
H       -0.7348375670   -4.1427342358    1.7963474141
H       -0.5053237470   -3.8849279465    3.5315324464
H        2.3978576006    2.0624389621   -1.5534765837
H       -1.1709664002   -1.2186496485   -1.5641630403
H       -1.4660105992   -5.9859102590    3.0104805542
