28   
Generated by ForceBalance from scan.xyz: Frame 1 of 24
C        7.7152488180   -1.4027758038   -0.4816736327
C       -2.6553621685   -2.4505525346    0.0938757828
C        6.8527306894   -2.4802303789   -0.2603673292
C        7.1843594911   -0.1098464188   -0.5359865131
C       -2.4001647240   -1.1033820625   -0.1828103437
C       -1.5767946654   -3.3154294537    0.2995143672
C        5.4781465574   -2.2917024047   -0.0922172998
C        5.8144979199    0.0956602682   -0.3756137452
C       -1.0883555048   -0.6356780994   -0.2500537118
C       -0.2557884823   -2.8637548122    0.2337115036
C        4.9494532676   -0.9914912584   -0.1558781237
C       -0.0053676593   -1.5090299733   -0.0421502710
C        2.5119591650   -1.5889529092    0.0393708958
N        3.5768810718   -0.6950830384    0.0028310070
N        1.2894733407   -0.9510168592   -0.1262048674
O        2.6390307026   -2.7978805573    0.2002527849
H        8.7819369959   -1.5657533344   -0.6073797243
H       -3.6762898500   -2.8180941715    0.1468203703
H        7.2510423867   -3.4905813573   -0.2119984558
H        7.8354062612    0.7437832877   -0.7056459088
H       -3.2222739072   -0.4116103492   -0.3468517158
H       -1.7592168525   -4.3654584676    0.5138579291
H        4.8189800373   -3.1295007546    0.0865681078
H        5.4120099842    1.1066334054   -0.4229923802
H       -0.9017519833    0.4156953786   -0.4646536811
H        0.5722737146   -3.5411279263    0.3873044717
H        3.3558495487    0.2879447852   -0.0871152027
H        1.3021572477    0.0380259131   -0.3369408339
28   
Generated by ForceBalance from scan.xyz: Frame 2 of 24
C        7.6598027843   -1.3956940768   -0.6500838690
C       -2.6435623469   -2.4352717867    0.0103288471
C        6.8234489077   -2.4818455594   -0.3756609743
C        7.1289397682   -0.1024200176   -0.6079115525
C       -2.3598567033   -1.1074756170   -0.3258069868
C       -1.5874945609   -3.2966809137    0.3208301883
C        5.4743958673   -2.2999300064   -0.0595274541
C        5.7821039900    0.0954814752   -0.3035229094
C       -1.0413129607   -0.6542988908   -0.3461477517
C       -0.2600541834   -2.8597950971    0.3009451242
C        4.9433637156   -0.9998458255   -0.0328760260
C        0.0186069587   -1.5238235186   -0.0324639718
C        2.5237023329   -1.6148930599    0.2178346590
N        3.5914330636   -0.7193352415    0.2799948745
N        1.3233353875   -0.9824889839   -0.0738562655
O        2.6393399589   -2.8219637254    0.3974004492
H        8.7079625598   -1.5526038098   -0.8886768399
H       -3.6697718975   -2.7913142963    0.0275589296
H        7.2238820014   -3.4922506779   -0.3983978102
H        7.7609453210    0.7570964550   -0.8157021198
H       -3.1646014937   -0.4195884333   -0.5717564071
H       -1.7927967580   -4.3320540266    0.5808282260
H        4.8361494603   -3.1432470532    0.1663387359
H        5.3776274283    1.1064094153   -0.2787518060
H       -0.8317459092    0.3825644216   -0.6053493145
H        0.5517144738   -3.5355156920    0.5307667377
H        3.3579914773    0.2635646642    0.2170243355
H        1.3640734173   -0.0115228662   -0.3535375603
28   
Generated by ForceBalance from scan.xyz: Frame 3 of 24
C        7.5579323171   -1.3672926127   -0.8263990889
C       -2.6039368799   -2.4183120343   -0.1145343079
C        6.7530942858   -2.4638238651   -0.5017676317
C        7.0400621150   -0.0767725652   -0.6781479351
C       -2.2783936825   -1.1156767228   -0.5065822110
C       -1.5864911566   -3.2690262030    0.3269689960
C        5.4481853495   -2.2933896538   -0.0321304738
C        5.7344838545    0.1097443511   -0.2218750206
C       -0.9562874092   -0.6757036242   -0.4519874327
C       -0.2557618012   -2.8453508723    0.3823970958
C        4.9275966064   -0.9956556908    0.0963136060
C        0.0642243445   -1.5342907560   -0.0067743864
C        2.5388316145   -1.6310231792    0.4487323644
N        3.6137311959   -0.7383854018    0.5664010935
N        1.3771289071   -1.0093495004    0.0202087934
O        2.6346418832   -2.8298779326    0.6817784015
H        8.5731875069   -1.5147490485   -1.1837303879
H       -3.6330603066   -2.7638614455   -0.1553401835
H        7.1457607916   -3.4723478441   -0.6039822492
H        7.6491779738    0.7899419210   -0.9214995143
H       -3.0531120861   -0.4373324895   -0.8542796099
H       -1.8248654240   -4.2850716552    0.6311092063
H        4.8367221250   -3.1447578906    0.2372996570
H        5.3384258533    1.1186355684   -0.1152505172
H       -0.7135117174    0.3417796601   -0.7550765440
H        0.5277812533   -3.5135434957    0.7114398201
H        3.3656865311    0.2425786686    0.5156403348
H        1.4569101982   -0.0583426797   -0.3142006324
28   
Generated by ForceBalance from scan.xyz: Frame 4 of 24
C        7.4031317142   -1.3477327332   -1.0300204294
C       -2.5265623335   -2.4053231890   -0.2548850025
C        6.6392297414   -2.4527155667   -0.6397987372
C        6.9117288501   -0.0615508365   -0.7866080001
C       -2.1464549707   -1.1320477288   -0.6918231176
C       -1.5663361805   -3.2409339688    0.3225830289
C        5.4019905416   -2.2911654911   -0.0116815452
C        5.6700933855    0.1146670043   -0.1727747559
C       -0.8268423116   -0.7052232181   -0.5468404044
C       -0.2383230748   -2.8306636810    0.4694365151
C        4.9039986355   -0.9976715800    0.2115201221
C        0.1355306436   -1.5488595915    0.0345869823
C        2.5614047125   -1.6481919407    0.7039862721
N        3.6542547027   -0.7661806513    0.8495091904
N        1.4511428780   -1.0397768339    0.1476397850
O        2.6223660299   -2.8314539593    1.0101986549
H        8.3675591991   -1.4861160959   -1.5104852895
H       -3.5540284361   -2.7403158101   -0.3656632120
H        7.0130801471   -3.4585055792   -0.8141060373
H        7.4909071710    0.8106976400   -1.0785717788
H       -2.8766561634   -0.4665520559   -1.1446836130
H       -1.8477853128   -4.2342548196    0.6627127945
H        4.8248550768   -3.1494407155    0.3102153422
H        5.2936831336    1.1205939942    0.0072710137
H       -0.5410090855    0.2896304310   -0.8852223089
H        0.5025035634   -3.4876943846    0.9034513559
H        3.3981372523    0.2148724796    0.8257044647
H        1.5818125969   -0.1153632425   -0.2410682334
28   
Generated by ForceBalance from scan.xyz: Frame 5 of 24
C        6.9800045632   -1.4500495930   -1.2548978786
C       -2.2216422010   -2.8095280024   -0.5033754566
C        5.7280778441   -2.0012309739   -1.5446291707
C        7.0857600098   -0.5067704446   -0.2269915695
C       -1.8488970079   -1.6701997030   -1.2250243976
C       -1.3625741795   -3.3046313060    0.4818264431
C        4.5933812140   -1.6187513476   -0.8248490712
C        5.9581293320   -0.1176310199    0.4977957826
C       -0.6332185905   -1.0397583815   -0.9627465807
C       -0.1418089213   -2.6830665847    0.7591254572
C        4.7021008721   -0.6714454374    0.2050511873
C        0.2263820741   -1.5414755668    0.0293328526
C        2.4717906460   -1.1597569023    1.0829075376
N        3.5556902423   -0.2104014208    0.9190374019
N        1.4402026621   -0.8486372496    0.2405580803
O        2.4809490753   -2.0583412057    1.9102702419
H        7.8589381432   -1.7535774926   -1.8163978829
H       -3.1681877473   -3.3024553354   -0.7066171020
H        5.6291867810   -2.7412212002   -2.3347497101
H        8.0513550603   -0.0704771105    0.0157962986
H       -2.5032956750   -1.2705187814   -1.9950963361
H       -1.6422046522   -4.1883027929    1.0495811926
H        3.6313371687   -2.0662609957   -1.0580741342
H        6.0489374546    0.6194734349    1.2931509673
H       -0.3468268974   -0.1556437777   -1.5293938156
H        0.5180923558   -3.0667433734    1.5254762071
H        3.8385191560    0.0790410147    1.8534199207
H        1.6028498698   -0.0269159848   -0.3285746408
28   
Generated by ForceBalance from scan.xyz: Frame 6 of 24
C        6.8018127599   -1.3795256239   -1.4030007676
C       -2.0976179291   -2.7922499500   -0.6145894540
C        5.5443246446   -1.9667845622   -1.5657701093
C        6.9880208327   -0.4483279568   -0.3747910179
C       -1.6214701532   -1.7166004718   -1.3720874749
C       -1.3615255359   -3.2269813018    0.4913933442
C        4.4822054762   -1.6355031705   -0.7189767664
C        5.9329154186   -0.1042631993    0.4705695466
C       -0.4244359063   -1.0906945254   -1.0260344353
C       -0.1627168527   -2.6068991334    0.8543527263
C        4.6706139516   -0.6982778229    0.3085279608
C        0.3119509951   -1.5307945524    0.0872082532
C        2.4690557746   -1.1488602483    1.3117211641
N        3.6105763749   -0.2869047249    1.1730491406
N        1.5129918051   -0.8456792560    0.3778580008
O        2.3592381007   -1.9692044886    2.2120185616
H        7.6238674855   -1.6451340014   -2.0614693350
H       -3.0294237529   -3.2822361861   -0.8826687071
H        5.3836253268   -2.6993559651   -2.3526021471
H        7.9594146365    0.0175936112   -0.2302379276
H       -2.1793905979   -1.3639585489   -2.2354846087
H       -1.7229746522   -4.0600851585    1.0887077515
H        3.5197878266   -2.1198255881   -0.8524531767
H        6.0821143813    0.6299001798    1.2594670256
H       -0.0560818874   -0.2576194612   -1.6219675319
H        0.3996180553   -2.9411596117    1.7157600594
H        3.9770913556   -0.1317281841    2.1096958438
H        1.7480623093   -0.0691970578   -0.2283466331
28   
Generated by ForceBalance from scan.xyz: Frame 7 of 24
C        6.6461426875   -1.2678894491   -1.5040468458
C       -2.0213694714   -2.7372146847   -0.6753277392
C        5.4234327778   -1.9416988101   -1.5574153094
C        6.8667404441   -0.3385237346   -0.4806969413
C       -1.4236856086   -1.7471515428   -1.4626769733
C       -1.4102023532   -3.1155060285    0.5237071408
C        4.4284602968   -1.7005337003   -0.6045260897
C        5.8751608185   -0.0777471876    0.4650054250
C       -0.2307864248   -1.1504601726   -1.0556923032
C       -0.2183994231   -2.5227657584    0.9495995485
C        4.6488887327   -0.7613900331    0.4150737597
C        0.3794698739   -1.5340228919    0.1510916648
C        2.4635529582   -1.1962918380    1.5069037190
N        3.6679056331   -0.4453028583    1.4034222412
N        1.5828876676   -0.8827691290    0.5000659943
O        2.2311942692   -1.9380229138    2.4531622821
H        7.4166259923   -1.4654268469   -2.2438304973
H       -2.9499801403   -3.2041006778   -0.9914584811
H        5.2398041836   -2.6754184213   -2.3380767782
H        7.8120364978    0.1948772462   -0.4226023609
H       -1.8832497499   -1.4388649979   -2.3980426819
H       -1.8665971636   -3.8811410190    1.1458816962
H        3.4984452292   -2.2580345341   -0.6491875013
H        6.0424947935    0.6611693863    1.2453464242
H        0.2325111555   -0.3851656229   -1.6759440516
H        0.2459575643   -2.8113346338    1.8828984505
H        4.0854316625   -0.4087370874    2.3299177473
H        1.9057968548   -0.1718338686   -0.1449848088
28   
Generated by ForceBalance from scan.xyz: Frame 8 of 24
C        6.5445683688   -1.1443864801   -1.6037291503
C       -1.9848315723   -2.6767284148   -0.6878851570
C        5.3799549234   -1.9164880823   -1.5865285271
C        6.7647638452   -0.2182957680   -0.5775619074
C       -1.2788480274   -1.7964415069   -1.5148490471
C       -1.4669217613   -2.9906904995    0.5721809605
C        4.4427505523   -1.7760369392   -0.5582175247
C        5.8251294563   -0.0540666438    0.4406118206
C       -0.0716620701   -1.2448378375   -1.0867649787
C       -0.2624809997   -2.4411867790    1.0197534377
C        4.6583651815   -0.8357930231    0.4622528315
C        0.4448695893   -1.5635593401    0.1814345205
C        2.4813518584   -1.2638553370    1.6164299857
N        3.7399850175   -0.6306611098    1.5339155325
N        1.6690373340   -0.9631677474    0.5461903104
O        2.1456275283   -1.9094191295    2.6033370419
H        7.2719182553   -1.2642360905   -2.4016274274
H       -2.9247120285   -3.1083857933   -1.0203832325
H        5.2009698203   -2.6498328774   -2.3685678564
H        7.6653775317    0.3901697429   -0.5759849652
H       -1.6647745381   -1.5389718134   -2.4977183505
H       -2.0078341292   -3.6704185306    1.2257049086
H        3.5625454552   -2.4106529380   -0.5437959221
H        5.9840326679    0.6851741462    1.2219803810
H        0.4756935939   -0.5651703283   -1.7376704637
H        0.1296703364   -2.6786202226    1.9993971375
H        4.1832487821   -0.6711455263    2.4470584794
H        2.0699293141   -0.3376249909   -0.1420735521
28   
Generated by ForceBalance from scan.xyz: Frame 9 of 24
C        6.5062418409   -1.0163051087   -1.6209501257
C       -2.0424900685   -2.5745295562   -0.6747943870
C        5.4068019406   -1.8791261964   -1.5949697469
C        6.6829429896   -0.1020272148   -0.5762617089
C       -1.2411172628   -1.8292186615   -1.5462463567
C       -1.5826747691   -2.8298265072    0.6205734775
C        4.4920716215   -1.8401607295   -0.5384811699
C        5.7609781699   -0.0374389182    0.4694084317
C        0.0005642773   -1.3533301029   -1.1261870353
C       -0.3438454560   -2.3551634325    1.0599767583
C        4.6597648123   -0.9085413507    0.4996636345
C        0.4589134018   -1.6128437849    0.1778046256
C        2.4657942451   -1.3422180474    1.6615627141
N        3.7652176215   -0.8175941392    1.6021342532
N        1.7245497370   -1.0960573691    0.5261353964
O        2.0415938437   -1.8760623727    2.6823162223
H        7.2178835314   -1.0580586610   -2.4406621265
H       -3.0097423532   -2.9471637015   -1.0001665173
H        5.2653788476   -2.6052467941   -2.3912685178
H        7.5329811717    0.5751994231   -0.5821775850
H       -1.5796255666   -1.6181984370   -2.5573128354
H       -2.1972371293   -3.4043015611    1.3091046379
H        3.6668851523   -2.5447134697   -0.5126350910
H        5.8813189148    0.6926371929    1.2658790845
H        0.6207643516   -0.7779292486   -1.8114805850
H        0.0032326947   -2.5472673732    2.0660814882
H        4.2023530508   -0.8719686370    2.5160880950
H        2.1861567503   -0.5582384959   -0.1970256149
28   
Generated by ForceBalance from scan.xyz: Frame 10 of 24
C        6.5127359486   -0.9106952704   -1.6536836867
C       -2.0945489883   -2.4887637496   -0.6509348967
C        5.4717608304   -1.8439315125   -1.6386035233
C        6.6428031467   -0.0118419864   -0.5891961283
C       -1.2427344489   -1.8536944207   -1.5609704581
C       -1.6499367166   -2.7080595615    0.6562270424
C        4.5692452341   -1.8881934379   -0.5723134929
C        5.7292396945   -0.0298361846    0.4659193984
C        0.0324414976   -1.4500908741   -1.1665427136
C       -0.3767587520   -2.3063517174    1.0694549587
C        4.6848412086   -0.9687812305    0.4847176281
C        0.4760344368   -1.6738185699    0.1493523764
C        2.4701882504   -1.3933163046    1.6490832229
N        3.8004217882   -0.9717973807    1.5928286968
N        1.7821010589   -1.2437310691    0.4637818726
O        1.9816757459   -1.7877473617    2.7048884207
H        7.2167494840   -0.8875420516   -2.4806595837
H       -3.0883935973   -2.8043402474   -0.9558586541
H        5.3702086208   -2.5601945958   -2.4497741046
H        7.4482986592    0.7177953999   -0.5866961798
H       -1.5685186282   -1.6712912205   -2.5817620987
H       -2.3029280004   -3.1972437240    1.3746686786
H        3.7946134568   -2.6482457062   -0.5494348163
H        5.8119816198    0.6878900995    1.2782434162
H        0.6903240438   -0.9581724382   -1.8811454723
H       -0.0419623179   -2.4693380641    2.0846762071
H        4.2194464363   -0.9520259098    2.5151908966
H        2.2838208848   -0.7983551368   -0.2944026497
28   
Generated by ForceBalance from scan.xyz: Frame 11 of 24
C        6.4888576832   -0.8018479960   -1.6711141314
C       -2.1281963798   -2.3999345849   -0.6258495415
C        5.5333145668   -1.8229175605   -1.6609898377
C        6.5596919723    0.0816854392   -0.5885765467
C       -1.2212826822   -1.8975065403   -1.5650749983
C       -1.7088148547   -2.5748467184    0.6962318394
C        4.6579089833   -1.9686588172   -0.5816847625
C        5.6697252106   -0.0377035808    0.4804946105
C        0.0818200565   -1.5797215011   -1.1837923545
C       -0.4073677096   -2.2588247964    1.0958906254
C        4.7100700608   -1.0630526790    0.4927136355
C        0.5000484573   -1.7581792899    0.1473550296
C        2.4904027854   -1.5035884251    1.6563682174
N        3.8466056156   -1.1818229112    1.6069390480
N        1.8375009642   -1.4219367527    0.4447524083
O        1.9596470705   -1.7878698608    2.7275195271
H        7.1740464664   -0.7002266018   -2.5079151573
H       -3.1441655669   -2.6480956316   -0.9200425048
H        5.4815633105   -2.5286281241   -2.4859524015
H        7.2993931728    0.8778968323   -0.5822855159
H       -1.5259018136   -1.7516440439   -2.5982354634
H       -2.4040547253   -2.9613693576    1.4372648407
H        3.9550031160   -2.7958846393   -0.5577076415
H        5.7056796497    0.6671219343    1.3075104022
H        0.7818213454   -1.1898623322   -1.9210168531
H       -0.0916086245   -2.3875996331    2.1220106499
H        4.2388932360   -1.0511058838    2.5311666867
H        2.3729213162   -1.0596697087   -0.3342731785
28   
Generated by ForceBalance from scan.xyz: Frame 12 of 24
C        6.4469488545   -0.7034564178   -1.6890555548
C       -2.1376189954   -2.2993890605   -0.6086566601
C        5.5779040421   -1.7992877648   -1.6773290190
C        6.4644354714    0.1712800055   -0.5973254618
C       -1.1967138779   -1.9052957188   -1.5659656614
C       -1.7335934830   -2.4393657963    0.7223067609
C        4.7358930887   -2.0258581306   -0.5855188297
C        5.6045711656   -0.0306716493    0.4843033513
C        0.1242557127   -1.6584831421   -1.1935956283
C       -0.4140991162   -2.1946847234    1.1127611322
C        4.7301975249   -1.1292054186    0.4973392140
C        0.5269051003   -1.8018417318    0.1464676791
C        2.5112585664   -1.5530784287    1.6606955465
N        3.8924431443   -1.3431095307    1.6179370447
N        1.8855463093   -1.5496165792    0.4331813606
O        1.9478447300   -1.7116672827    2.7409295232
H        7.1085682635   -0.5378073636   -2.5345572137
H       -3.1675787863   -2.4917105299   -0.8959617656
H        5.5709207155   -2.4983764244   -2.5094706520
H        7.1384795066    1.0237859411   -0.5929797492
H       -1.4889071077   -1.7880480242   -2.6063298818
H       -2.4547093681   -2.7426947624    1.4772126929
H        4.1050937102   -2.9095316073   -0.5548385761
H        5.5991543616    0.6656773023    1.3193818796
H        0.8501865370   -1.3511712248   -1.9446265507
H       -0.1099251709   -2.2961876190    2.1453793496
H        4.2538218906   -1.0932034117    2.5304658341
H        2.4501597635   -1.2828655604   -0.3635709520
28   
Generated by ForceBalance from scan.xyz: Frame 13 of 24
C        6.5685662389   -0.4353210613    0.9243034803
C       -2.0802816937   -2.1983023890    0.8610805504
C        5.6212807443   -1.4095296952    1.2548886021
C        6.5709571770    0.1097322488   -0.3642850446
C       -1.1267044540   -1.4586645416    1.5687128944
C       -1.7355115962   -2.7393320754   -0.3810042226
C        4.6865621134   -1.8423242485    0.3107244316
C        5.6219494706   -0.2951411956   -1.3048450276
C        0.1495036099   -1.2683802608    1.0400198955
C       -0.4618296434   -2.5556691058   -0.9262923074
C        4.6700838538   -1.2738365466   -0.9753032788
C        0.4931105870   -1.8152122459   -0.2096142594
C        2.3910790512   -2.0044266368   -1.8421055555
N        3.7450097648   -1.6910718092   -1.9606889776
N        1.8082135150   -1.5846437415   -0.6653093814
O        1.8027192025   -2.5707462476   -2.7602727047
H        7.3000341860   -0.1103215615    1.6587135458
H       -3.0753461510   -2.3476386308    1.2707796339
H        5.6218833552   -1.8562463292    2.2457173838
H        7.3036049031    0.8653874214   -0.6351556429
H       -1.3738218314   -1.0274404375    2.5353924455
H       -2.4677631169   -3.3135030536   -0.9431878865
H        3.9895372335   -2.6369228795    0.5590604983
H        5.6057006621    0.1502002873   -2.2965362567
H        0.8862108539   -0.6920060541    1.5972911141
H       -0.2034386104   -2.9684060358   -1.8917327430
H        4.0821609835   -1.8222609788   -2.9063500099
H        2.3840523109   -1.0236663577   -0.0500684364
28   
Generated by ForceBalance from scan.xyz: Frame 14 of 24
C        6.5871173800   -0.5430979270    0.9387898700
C       -2.0421058066   -2.2738990330    0.9110682397
C        5.5551544001   -1.4364073782    1.2424473968
C        6.6498112864    0.0226318419   -0.3393463667
C       -1.1454773256   -1.4151445859    1.5557840842
C       -1.6720645757   -2.8512551170   -0.3071979273
C        4.5953933090   -1.7693419506    0.2827152147
C        5.6792083693   -0.2819484002   -1.2952325856
C        0.0996987672   -1.1451385570    0.9890618650
C       -0.4298565679   -2.5878919581   -0.8909229952
C        4.6435295032   -1.1810812961   -0.9933419067
C        0.4688318298   -1.7289729158   -0.2362649520
C        2.3700700840   -1.8940822254   -1.8669665344
N        3.6988184601   -1.4865310130   -2.0056223651
N        1.7492519522   -1.4106935565   -0.7349152972
O        1.8259493002   -2.5657602466   -2.7396320711
H        7.3358386193   -0.2956371879    1.6859448990
H       -3.0128762188   -2.4862666850    1.3501517918
H        5.5055373358   -1.8980480207    2.2251900682
H        7.4473870936    0.7170843871   -0.5899460621
H       -1.4126994125   -0.9534345578    2.5028064667
H       -2.3605014050   -3.5176324940   -0.8208682632
H        3.8274860960   -2.5002865682    0.5156155376
H        5.7106316669    0.1805514194   -2.2785846890
H        0.7928223902   -0.4773853939    1.4980864289
H       -0.1535834006   -3.0294652880   -1.8385498830
H        4.0657061771   -1.7309697917   -2.9178911804
H        2.2903203214   -0.7758522659   -0.1612063540
28   
Generated by ForceBalance from scan.xyz: Frame 15 of 24
C        6.5785628210   -0.6530809899    0.9426500522
C       -1.9924102812   -2.3397808286    0.9810026263
C        5.4874708044   -1.4811679259    1.2220472054
C        6.6847751485   -0.0670029947   -0.3235939951
C       -1.1482453975   -1.3843509561    1.5569021664
C       -1.6081898372   -2.9533313494   -0.2150347570
C        4.5123699198   -1.7309276586    0.2520372841
C        5.7027127501   -0.2890051554   -1.2902090713
C        0.0610447369   -1.0549578320    0.9454709731
C       -0.4027324472   -2.6301585792   -0.8439644579
C        4.6100468128   -1.1261184169   -1.0123381598
C        0.4439561663   -1.6747378138   -0.2574881829
C        2.3553190529   -1.8483545485   -1.8756127310
N        3.6517136107   -1.3396799822   -2.0422852558
N        1.6813376300   -1.2864819772   -0.8128669429
O        1.8750606829   -2.6426130034   -2.6788798845
H        7.3372444098   -0.4703500334    1.6983864429
H       -2.9345862649   -2.5987725252    1.4558931253
H        5.3997867787   -1.9562166065    2.1956891489
H        7.5271681941    0.5790770629   -0.5563624524
H       -1.4279112986   -0.8942274886    2.4858561654
H       -2.2566850957   -3.6944888926   -0.6754064913
H        3.6935492753   -2.4086645872    0.4716409024
H        5.7695452228    0.1899068136   -2.2638696895
H        0.7149605935   -0.3138438877    1.4020656060
H       -0.1146898171   -3.1004972088   -1.7742441087
H        4.0366754316   -1.6538502716   -2.9268286148
H        2.1811526515   -0.5715919283   -0.2986714518
28   
Generated by ForceBalance from scan.xyz: Frame 16 of 24
C        6.6160395330   -0.7887508812    0.9424033181
C       -1.9578518216   -2.4156994980    1.0222817132
C        5.4599529389   -1.5255880169    1.2137319456
C        6.7610274798   -0.1798686593   -0.3094630959
C       -1.2115367659   -1.3444882538    1.5250414723
C       -1.5107865499   -3.0784504726   -0.1246244803
C        4.4559100889   -1.6630733028    0.2502752253
C        5.7543463386   -0.2921499432   -1.2690090818
C       -0.0345479343   -0.9485584298    0.8905147404
C       -0.3373910630   -2.6902601904   -0.7768832350
C        4.5958016061   -1.0392898271   -1.0000145483
C        0.4107973851   -1.6182026704   -0.2627905682
C        2.3518820218   -1.7470989744   -1.8482424635
N        3.6072590860   -1.1266172086   -2.0241657855
N        1.6088089743   -1.1583054016   -0.8500830723
O        1.9583736272   -2.6347584556   -2.5969420596
H        7.3950728247   -0.6928984370    1.6933561075
H       -2.8743789189   -2.7262840099    1.5160094846
H        5.3396896021   -2.0155368296    2.1765005400
H        7.6539291366    0.3968798078   -0.5363607842
H       -1.5423281503   -0.8156235158    2.4150665970
H       -2.0837134595   -3.9099077263   -0.5272976491
H        3.5820603017   -2.2687843891    0.4675771829
H        5.8546523945    0.2040093542   -2.2312998876
H        0.5446512097   -0.1179227023    1.2902571365
H       -0.0006335095   -3.1989364501   -1.6700054950
H        3.9915766711   -1.4161953410   -2.9187370434
H        2.0457550059   -0.3690713553   -0.3898174539
28   
Generated by ForceBalance from scan.xyz: Frame 17 of 24
C        6.7206917832   -0.9238471763    0.9088759229
C       -1.9641691896   -2.5069979613    1.0090359736
C        5.5092567039   -1.5492757046    1.2141935202
C        6.8754870785   -0.3140049374   -0.3416117205
C       -1.3322473949   -1.3418942546    1.4568587728
C       -1.4177947308   -3.2055271909   -0.0716409507
C        4.4604818977   -1.5742942671    0.2892314738
C        5.8302179059   -0.3181856950   -1.2652040504
C       -0.1699156496   -0.8887981696    0.8336477554
C       -0.2576063323   -2.7617244489   -0.7120541417
C        4.6151446342   -0.9539894686   -0.9603258658
C        0.3749178404   -1.5947942189   -0.2529101827
C        2.3763668458   -1.6588025269   -1.7647694062
N        3.5778107670   -0.9167126691   -1.9408794166
N        1.5505096025   -1.0731456296   -0.8360244428
O        2.0979909248   -2.6315375986   -2.4545640349
H        7.5328278586   -0.9145254006    1.6301893550
H       -2.8690148792   -2.8623543717    1.4940385265
H        5.3763501591   -2.0381208180    2.1758871498
H        7.8109446786    0.1769051570   -0.5973750298
H       -1.7410846343   -0.7841105810    2.2952348940
H       -1.9013531121   -4.1102454388   -0.4311292069
H        3.5397466791   -2.0921929865    0.5378168358
H        5.9467932706    0.1759014670   -2.2270754359
H        0.3204251297    0.0150329184    1.1909818855
H        0.1559462182   -3.3000315883   -1.5541765345
H        3.9424313628   -1.1404591348   -2.8633979247
H        1.9028966526   -0.2141460201   -0.4313924671
28   
Generated by ForceBalance from scan.xyz: Frame 18 of 24
C        6.8627006752   -1.0673551103    0.8042320284
C       -2.0535422371   -2.5645793405    0.9671120422
C        5.6232668249   -1.5802878475    1.1958158698
C        6.9800796269   -0.4575920574   -0.4501590362
C       -1.5410856427   -1.3246302360    1.3639493571
C       -1.3815159379   -3.2980604199   -0.0149345709
C        4.5109917048   -1.4906672510    0.3533500888
C        5.8746776587   -0.3549671902   -1.2949940591
C       -0.3716714507   -0.8311960572    0.7866085187
C       -0.2112105853   -2.8161551400   -0.6077619383
C        4.6305063303   -0.8748068567   -0.9020286529
C        0.2992848684   -1.5729159621   -0.2007884126
C        2.3776970751   -1.5691834915   -1.6077132604
N        3.5185239085   -0.7130513281   -1.7838481104
N        1.4755396893   -1.0078231211   -0.7422980043
O        2.2213055015   -2.6077347832   -2.2341535751
H        7.7238595385   -1.1448567438    1.4617220046
H       -2.9639678495   -2.9512432805    1.4163829078
H        5.5159633027   -2.0659847864    2.1623444362
H        7.9364941391   -0.0548340986   -0.7736626584
H       -2.0492339848   -0.7395941162    2.1259052180
H       -1.7718520541   -4.2614230631   -0.3327973145
H        3.5632108635   -1.9145151305    0.6707136809
H        5.9702161475    0.1320388427   -2.2631406953
H        0.0254944937    0.1317320947    1.1027243749
H        0.3013809068   -3.3831341900   -1.3731496654
H        3.8280253803   -0.8299738435   -2.7462812754
H        1.7404550725   -0.0952222261   -0.3921066683
28   
Generated by ForceBalance from scan.xyz: Frame 19 of 24
C        7.0337145628   -1.1797480981    0.6703807227
C       -2.1850099126   -2.6139077441    0.8716054258
C        5.8054853953   -1.6171815599    1.1755249164
C        7.0712306562   -0.5614845259   -0.5841751329
C       -1.7789640236   -1.3219353333    1.2233684546
C       -1.3815447834   -3.3713728396    0.0146386445
C        4.6271875702   -1.4406250512    0.4459193124
C        5.8998982557   -0.3797886554   -1.3212077784
C       -0.5860815883   -0.7998312654    0.7247728156
C       -0.1843784751   -2.8620985782   -0.4962247725
C        4.6679635527   -0.8189728887   -0.8117823999
C        0.2175094268   -1.5656333753   -0.1369635597
C        2.3936483961   -1.5127793300   -1.3856528797
N        3.4778775691   -0.5651710692   -1.5571481808
N        1.4111470030   -0.9699024031   -0.6043023325
O        2.3610599936   -2.6065235712   -1.9285397392
H        7.9466158029   -1.3224425653    1.2415085945
H       -3.1139329176   -3.0222191509    1.2597170512
H        5.7593265133   -2.1066029577    2.1450524347
H        8.0173810767   -0.2188317290   -0.9953357504
H       -2.3899072205   -0.7176939673    1.8886621458
H       -1.6869398999   -4.3758222827   -0.2668420585
H        3.6841117158   -1.7968459357    0.8507986995
H        5.9377076719    0.1054104867   -2.2945183936
H       -0.2740229163    0.2046872088    1.0046543140
H        0.4321692355   -3.4499984239   -1.1627047304
H        3.7026854527   -0.5499991095   -2.5501484985
H        1.6007296851   -0.0236372729   -0.2973257123
28   
Generated by ForceBalance from scan.xyz: Frame 20 of 24
C        7.4430840908   -1.1447569199    0.4068510529
C       -2.5027183217   -2.2934342687    0.5366012475
C        6.6673948221   -2.3086216698    0.3834518091
C        6.9286401617    0.0274983441   -0.1554580101
C       -2.1083832997   -0.9519328222    0.5758737957
C       -1.5700863204   -3.2642387810    0.1605710505
C        5.3950228787   -2.3175493409   -0.1930173584
C        5.6525575974    0.0368101554   -0.7220049818
C       -0.8038332459   -0.5917116665    0.2397350196
C       -0.2568788832   -2.9214144514   -0.1733693603
C        4.8752371194   -1.1325456420   -0.7376260646
C        0.1301673606   -1.5720244100   -0.1377551661
C        2.5134133275   -1.8740663488   -0.8932884058
N        3.5892741802   -1.0773964873   -1.3423751389
N        1.4321457941   -1.1251848058   -0.4663270287
O        2.5659286784   -3.0962194901   -0.8600203390
H        8.4345014073   -1.1521659059    0.8508558771
H       -3.5188061556   -2.5759939636    0.7972515752
H        7.0587643838   -3.2294241839    0.8085668717
H        7.5167453758    0.9416216549   -0.1506814891
H       -2.8168560878   -0.1807348692    0.8664501941
H       -1.8616265670   -4.3109506965    0.1293911638
H        4.8070413703   -3.2265291994   -0.2303967547
H        5.2582459597    0.9562108267   -1.1524041202
H       -0.5080795227    0.4559918738    0.2684185720
H        0.4631823203   -3.6792832667   -0.4490849498
H        3.3273569022   -0.1264988146   -1.5786814513
H        1.5778298256   -0.1302932254   -0.3582618462
28   
Generated by ForceBalance from scan.xyz: Frame 21 of 24
C        7.5877136631   -1.2191142948    0.2086824475
C       -2.5902384453   -2.3426487563    0.4084316306
C        6.7754490454   -2.3567276374    0.2483840313
C        7.0504397629   -0.0169539738   -0.2622157021
C       -2.2524778316   -0.9853005542    0.4020145498
C       -1.5936368241   -3.2915436739    0.1630089425
C        5.4443199337   -2.3135796455   -0.1742970499
C        5.7192101182    0.0450623532   -0.6763806479
C       -0.9392839467   -0.5897903094    0.1497953240
C       -0.2717124395   -2.9121813658   -0.0859900031
C        4.9051201097   -1.0990842668   -0.6280898229
C        0.0600984096   -1.5474525310   -0.0971251148
C        2.5055017874   -1.7881360157   -0.6497152707
N        3.5642147123   -0.9730224730   -1.0749590292
N        1.3649617468   -1.0623716970   -0.3461601767
O        2.5974474183   -3.0051602730   -0.5443198920
H        8.6230827384   -1.2688413009    0.5338175965
H       -3.6124671720   -2.6540693414    0.6039668449
H        7.1822654478   -3.3000297733    0.6039768304
H        7.6646591634    0.8787918823   -0.3047284964
H       -3.0107614952   -0.2300689349    0.5913902126
H       -1.8414926204   -4.3499372299    0.1687040089
H        4.8260403857   -3.2017260807   -0.1607706032
H        5.3087636409    0.9875434074   -1.0360254294
H       -0.6871063672    0.4696581979    0.1424235127
H        0.4963843299   -3.6525725231   -0.2607587825
H        3.3113292845   -0.0148625605   -1.2856441630
H        1.4562571726   -0.0565642111   -0.2951761424
28   
Generated by ForceBalance from scan.xyz: Frame 22 of 24
C        7.6827101581   -1.2868273657    0.0316939081
C       -2.6318905385   -2.3871018257    0.3029061748
C        6.8414748883   -2.3997447003    0.1224486420
C        7.1384155873   -0.0531223380   -0.3396643756
C       -2.3401692604   -1.0205591679    0.2397098307
C       -1.5891683795   -3.3097080978    0.1794636802
C        5.4745647012   -2.3031159906   -0.1517281377
C        5.7743559497    0.0627784213   -0.6073617693
C       -1.0270048401   -0.5903402249    0.0529541021
C       -0.2671708626   -2.8948623022   -0.0038243622
C        4.9315770811   -1.0582637859   -0.5100951420
C        0.0197645493   -1.5212738644   -0.0715778040
C        2.5063318280   -1.6991714823   -0.4348993178
N        3.5610731948   -0.8662111701   -0.8087708430
N        1.3196053881   -1.0006262980   -0.2624811849
O        2.6213201009   -2.9091451864   -0.2757125414
H        8.7444908703   -1.3787772829    0.2423233195
H       -3.6540028833   -2.7253880445    0.4478596193
H        7.2516356100   -3.3664147051    0.4036779912
H        7.7738854132    0.8251107704   -0.4186610083
H       -3.1345907600   -0.2848353094    0.3340536918
H       -1.8004933358   -4.3748710976    0.2297819463
H        4.8316227373   -3.1708061151   -0.0940826487
H        5.3600277210    1.0294164955   -0.8905137456
H       -0.8114887543    0.4759915364    0.0012362157
H        0.5351205838   -3.6145080331   -0.0863210297
H        3.3230062206    0.0969968847   -1.0091335962
H        1.3687057958    0.0094379406   -0.2659236771
28   
Generated by ForceBalance from scan.xyz: Frame 23 of 24
C        7.7255977050   -1.3511787973   -0.1223169616
C       -2.6521836721   -2.4316630377    0.2197006270
C        6.8610146220   -2.4411878480    0.0126830233
C        7.1880386524   -0.0893522455   -0.3966372119
C       -2.3928062532   -1.0630307234    0.0926056945
C       -1.5804305771   -3.3287026258    0.2035417523
C        5.4775122806   -2.2954268159   -0.1214969066
C        5.8094031678    0.0739042248   -0.5279665658
C       -1.0832576253   -0.6058052640   -0.0491006616
C       -0.2616054446   -2.8874022401    0.0645214827
C        4.9417298605   -1.0243867105   -0.3888775614
C       -0.0071802545   -1.5116695611   -0.0653238685
C        2.5020352812   -1.6317591427   -0.2654324897
N        3.5598179923   -0.7729332409   -0.5446674872
N        1.2857000017   -0.9631802042   -0.2155742688
O        2.6298237742   -2.8380695079   -0.0864029199
H        8.7990840293   -1.4814394095   -0.0182161615
H       -3.6714623375   -2.7908178648    0.3303750015
H        7.2643886169   -3.4286902230    0.2223064798
H        7.8404285054    0.7729232553   -0.5071886532
H       -3.2099040032   -0.3463963008    0.1028599330
H       -1.7663477983   -4.3951590982    0.3030258164
H        4.8163350361   -3.1448866500   -0.0234998086
H        5.4018062663    1.0617753727   -0.7382836199
H       -0.8931832689    0.4619872058   -0.1490033683
H        0.5618947016   -3.5873514896    0.0601525815
H        3.3361562108    0.1977623562   -0.7208004638
H        1.3023782055    0.0452497506   -0.2903058778
28   
Generated by ForceBalance from scan.xyz: Frame 24 of 24
C        7.7400775488   -1.3800571980   -0.3050260685
C       -2.6534091984   -2.4457012304    0.1520865652
C        6.8685777837   -2.4553029036   -0.1100995929
C        7.2067857372   -0.0995269434   -0.4849166198
C       -2.4075883259   -1.0815366729   -0.0354323478
C       -1.5693815571   -3.3240542186    0.2358992219
C        5.4824286048   -2.2775088245   -0.0913450362
C        5.8262979426    0.0954460468   -0.4692197219
C       -1.0991151549   -0.6107703889   -0.1366842177
C       -0.2516682255   -2.8688881043    0.1367392468
C        4.9519649586   -0.9890275955   -0.2726450346
C       -0.0102340821   -1.4975327881   -0.0518066135
C        2.5077981881   -1.5831756140   -0.1149074359
N        3.5695864727   -0.7004468823   -0.2686512670
N        1.2800569005   -0.9348575293   -0.1648453931
O        2.6388913121   -2.7917724842    0.0464555439
H        8.8152072164   -1.5354006413   -0.3168528040
H       -3.6717061506   -2.8158028986    0.2312492377
H        7.2682730089   -3.4563735410    0.0309921400
H        7.8642332999    0.7522751551   -0.6383579205
H       -3.2341972863   -0.3791004078   -0.1036391197
H       -1.7448216717   -4.3869691263    0.3816434631
H        4.8158822987   -3.1147897610    0.0591818274
H        5.4223396992    1.0969987538   -0.6106865143
H       -0.9196227722    0.4535295444   -0.2828010737
H        0.5806670069   -3.5550386085    0.2030243018
H        3.3505074487    0.2767442884   -0.4099826642
H        1.2842360177    0.0684760489   -0.2920408269
