73

C      9.38641    2.54957    8.03571
C      4.10238   -4.67760    5.11786
C      9.04265    2.60691    6.67953
C      8.87378    1.52093    8.83203
C      3.75808   -3.68202    6.03921
C      5.40403   -4.72005    4.60795
C     -7.14554    8.68303    0.20823
C     -8.36391    8.39282    0.82667
C      8.19589    1.64391    6.12790
C      8.03386    0.55286    8.27388
C      4.70253   -2.73488    6.43662
C      6.34993   -3.77556    5.01547
C      4.85505    1.19739    6.20328
C      5.18451   -0.28012    4.33706
C      3.73609    1.75861    5.57892
C      4.08289    0.27286    3.69743
C     -5.96196    8.38531    0.88350
C     -8.34096    7.81251    2.09804
C      7.69181    0.59163    6.91219
C      5.58843    0.15935    5.61294
C      6.01128   -2.75848    5.92384
C      3.34260    1.29226    4.31756
C     -6.04689    7.80008    2.15473
C      6.77315   -0.41782    6.30872
C      7.01756   -1.75331    6.37236
C      8.11093   -3.17308    8.18976
C     -4.80605    7.43932    2.92886
C      8.30744   -2.34065    6.91124
C     -0.55009    4.25075    3.74635
C      0.36331    3.13926    3.21796
C     -1.67780    4.58783    2.76226
C      1.48219    2.80539    4.19376
C     -2.58000    5.69675    3.30440
N     -7.21258    7.51567    2.75593
O     -3.27405    6.61543    0.88981
O     -4.78460    4.89424    2.02041
O      2.27046    1.76755    3.61019
S     -3.90181    6.06786    2.10946
H     10.03995    3.30323    8.46760
H      3.36635   -5.41325    4.80386
H      9.43234    3.40545    6.05294
H      9.12212    1.47457    9.88955
H      2.75137   -3.64317    6.44792
H      5.68337   -5.48825    3.89100
H     -7.11638    9.13031   -0.78181
H     -9.31125    8.60715    0.34035
H      7.91948    1.70063    5.07836
H      7.62594   -0.23547    8.90000
H      4.42841   -1.95971    7.14597
H      7.35452   -3.81641    4.60231
H      5.15769    1.57571    7.17602
H      5.74419   -1.06664    3.84171
H      3.19268    2.55184    6.07983
H      3.77637   -0.06750    2.71253
H     -4.99152    8.57307    0.43525
H     -9.26992    7.57243    2.61261
H      7.40555   -3.99278    8.02335
H      7.71725   -2.55660    9.00467
H      9.06206   -3.60375    8.52054
H     -5.08420    7.09596    3.92656
H     -4.09126    8.26459    2.98494
H      9.04070   -1.55171    7.08702
H      8.73692   -2.99439    6.14089
H     -0.98324    3.94556    4.70832
H      0.04422    5.15282    3.94473
H      0.80674    3.43954    2.26180
H     -0.22048    2.23181    3.02648
H     -1.25363    4.90512    1.80435
H     -2.28169    3.69546    2.56938
H      2.10802    3.68882    4.38356
H      1.07049    2.46681    5.15496
H     -3.07580    5.39959    4.23327
H     -2.02811    6.62821    3.46360
