27   

C       -1.6593467969   -0.4133523473    1.7487601826
C       -0.5849520600   -0.6254097634    0.8657605103
C       -2.4634110718   -1.4907444325    2.1525953500
C       -0.3101724463   -1.9135729710    0.3831792236
C       -2.1789739776   -2.7713284638    1.6663603145
C       -1.1217059952   -2.9713680153    0.7980873763
C       -2.8842559739   -4.0204125952    1.9706949474
C       -2.2416826896   -7.1384680975    2.7179635747
C       -2.7253462448   -8.2178324353    3.4071552909
C       -2.8697131865   -6.4889223063    1.5006027502
C       -3.6649704999   -8.2393293566    4.5758054572
N       -2.3453925644   -5.1457435456    1.3860007442
O       -3.8742116610   -4.0699485028    2.6867323393
O       -1.3416730754   -4.9652619408   -1.0488778655
O        0.2263946500   -5.3419521862    0.8257086761
S       -1.0255488998   -4.7216388032    0.3663172666
Br      -2.7333422124   -8.8260758865    6.2247871735
H       -1.8673764739    0.5840882709    2.1204749788
H        0.0351985891    0.2084430251    0.5561864416
H       -3.2947577959   -1.3431749890    2.8352906263
H        0.5176763843   -2.0869707917   -0.2983631043
H       -1.1585329377   -7.0634567101    2.6963214436
H       -1.9766060097   -8.9960052842    3.5193622260
H       -2.6334890130   -7.0694667807    0.6014677247
H       -3.9607039669   -6.4684921315    1.6041254112
H       -4.5022954030   -8.9113557810    4.3657372642
H       -4.0698081779   -7.2346376685    4.7352591294
27   

C       -1.6973627875   -0.5310371757    1.9749623808
C       -0.6662532730   -0.6359357456    1.0237112351
C       -2.4514496538   -1.6620389197    2.3260289255
C       -0.3844558528   -1.8702815736    0.4203725750
C       -2.1615995506   -2.8883835828    1.7184071460
C       -1.1457648424   -2.9824798491    0.7846080612
C       -2.8211827474   -4.1790061364    1.9454889324
C       -2.0467048257   -7.2578584616    2.4638357716
C       -2.6513860754   -8.1200049121    3.3244266904
C       -2.7363604555   -6.6033213883    1.2859784176
C       -3.6231053601   -7.7431052720    4.4029102130
N       -2.3048320108   -5.2263036220    1.2147013694
O       -3.7597033365   -4.3262059719    2.7159175780
O       -1.3822552407   -4.8109612484   -1.2233851828
O        0.2511861938   -5.3148364689    0.5624829604
S       -1.0269934634   -4.6849543184    0.1979509920
Br      -2.8999384336   -8.2023938435    6.1903348837
H       -1.9108884099    0.4253526158    2.4396997001
H       -0.0851569353    0.2390585851    0.7545063808
H       -3.2494957018   -1.5965508385    3.0592876517
H        0.4098925183   -1.9614155943   -0.3149599867
H       -0.9938968243   -7.4459206275    2.2769281349
H       -2.0383341870   -8.9730510927    3.5982276605
H       -2.4660491137   -7.1261221386    0.3613581361
H       -3.8253530435   -6.6655106869    1.3939014314
H       -4.5722955207   -8.2633885983    4.2448308916
H       -3.8177802403   -6.6659965214    4.3620233952
27   

C       -1.7310372747   -0.5682630188    2.0081668319
C       -0.7074698449   -0.6644470503    1.0479126757
C       -2.4760026417   -1.7044700953    2.3615385723
C       -0.4241106462   -1.8952780769    0.4379620862
C       -2.1842854495   -2.9271758583    1.7474713172
C       -1.1761117328   -3.0129777796    0.8048599945
C       -2.8337294012   -4.2221200844    1.9773969967
C       -1.9698437133   -7.3268292010    2.4280738735
C       -2.5490292786   -8.0933561616    3.3796831040
C       -2.7368325766   -6.6469510953    1.3158672500
C       -3.5952139010   -7.6188412301    4.3421323613
N       -2.3078006745   -5.2683014284    1.2518228679
O       -3.7741911629   -4.3719088608    2.7446642715
O       -1.4354299609   -4.8394048081   -1.2017471311
O        0.2374219601   -5.3322969679    0.5501213646
S       -1.0535664295   -4.7134979073    0.2127054193
Br      -3.0243865248   -7.9532015354    6.2101260925
H       -1.9456375285    0.3852640121    2.4782881377
H       -0.1333642429    0.2146145171    0.7769863068
H       -3.2678790797   -1.6458912094    3.1020669286
H        0.3645171733   -1.9795537529   -0.3042834829
H       -0.9407414262   -7.5648052305    2.1773254465
H       -1.9319280023   -8.9031505243    3.7562893587
H       -2.5279807102   -7.1457650721    0.3625316121
H       -3.8167202855   -6.7130019448    1.4916901327
H       -4.5384488697   -8.1380258003    4.1489635850
H       -3.7666807467   -6.5459876956    4.2083653251
27   

C       -1.7179386944   -0.5735016146    2.0086292506
C       -0.6833880638   -0.6719350937    1.0604844188
C       -2.4717157517   -1.7073345257    2.3502187372
C       -0.3977512384   -1.9027167189    0.4512042964
C       -2.1771269260   -2.9298925001    1.7371690530
C       -1.1584209575   -3.0183313308    0.8066739504
C       -2.8331942371   -4.2225975122    1.9585855602
C       -1.9139682684   -7.3823695393    2.3238916754
C       -2.4306474994   -8.0452002873    3.3765805128
C       -2.7408742559   -6.6487247590    1.2927283878
C       -3.5128365205   -7.5291997523    4.2711740701
N       -2.2874320542   -5.2758346917    1.2577861291
O       -3.7976489657   -4.3610838423    2.6972651497
O       -1.4254348502   -4.8447987117   -1.1982595317
O        0.2569364757   -5.3359789457    0.5444317412
S       -1.0368820296   -4.7190962705    0.2144257344
Br      -2.9942545784   -7.7389205256    6.1718155748
H       -1.9340628437    0.3796923040    2.4787643751
H       -0.1024833676    0.2053894457    0.7986139682
H       -3.2717969699   -1.6473369063    3.0818006618
H        0.3994127601   -1.9885412601   -0.2816419713
H       -0.9200598019   -7.6753734114    2.0002198996
H       -1.7946069404   -8.8119024093    3.8078527185
H       -2.6037027054   -7.1109750071    0.3084620009
H       -3.8084112986   -6.7048422003    1.5345676963
H       -4.4405827550   -8.0774932773    4.0836117706
H       -3.6984311618   -6.4705679343    4.0692599424
27   

C       -1.9746307916   -0.7051138535    2.1278076248
C       -0.7381273736   -0.8435083799    1.4714459984
C       -2.8418571687   -1.8033823489    2.2363735388
C       -0.3632903980   -2.0791608137    0.9232902806
C       -2.4575911969   -3.0302422399    1.6851665988
C       -1.2402561545   -3.1586609821    1.0433245073
C       -3.2052710059   -4.2911374315    1.7031467881
C       -2.1571289470   -7.5717021588    2.0648653072
C       -2.3978157972   -7.7584959459    3.3742464612
C       -3.0106001597   -6.7364544473    1.1307532560
C       -3.0757600150   -6.7780394567    4.2713249015
N       -2.5450311284   -5.3655512655    1.1467623282
O       -4.3344223992   -4.3878937260    2.1644680758
O       -1.0815210396   -4.9399793515   -1.0059818694
O        0.1087644692   -5.5288170441    1.0749208426
S       -1.0476470687   -4.8570641347    0.4623836251
Br      -1.7881036647   -5.3828865185    4.8456844306
H       -2.2588357551    0.2507489550    2.5540373602
H       -0.0693396751    0.0059371071    1.3898625033
H       -3.7970169174   -1.7140947781    2.7446205874
H        0.5904716309   -2.1971947632    0.4172894758
H       -1.4570881582   -8.2514888989    1.5906189728
H       -1.9065671348   -8.5941459013    3.8614143165
H       -2.9492958150   -7.1353669284    0.1120191668
H       -4.0618776496   -6.7927172343    1.4350923854
H       -3.4542014006   -7.2967028069    5.1572936061
H       -3.9304550070   -6.3180358625    3.7676712795
27   

C       -1.9824692034   -0.6791605298    2.1361278711
C       -0.7310966365   -0.8400344780    1.5139920188
C       -2.8600426817   -1.7688968923    2.2459726064
C       -0.3521164404   -2.0894904088    1.0007675737
C       -2.4708777089   -3.0097112015    1.7306227821
C       -1.2398333646   -3.1602176276    1.1209448401
C       -3.2258449953   -4.2655692289    1.7606047214
C       -2.2348967566   -7.6262595508    2.0767802459
C       -2.3187894407   -7.6971203570    3.4142937828
C       -3.0630308951   -6.7144554534    1.1926525079
C       -2.9906768944   -6.6989378142    4.2918111794
N       -2.5512653244   -5.3612148064    1.2656008202
O       -4.3697845259   -4.3422666957    2.1880002742
O       -1.0728461393   -4.9894159216   -0.8851133828
O        0.1036710099   -5.5323874742    1.2162442164
S       -1.0473137517   -4.8725915642    0.5812030948
Br      -1.6900345927   -5.3144779814    4.8615837199
H       -2.2699991602    0.2872619124    2.5355085776
H       -0.0540029101    0.0027676058    1.4321173300
H       -3.8264714402   -1.6625975085    2.7290532508
H        0.6131896453   -2.2247473939    0.5217384435
H       -1.6186679999   -8.3648515503    1.5751866012
H       -1.7878850076   -8.5031279505    3.9097253262
H       -3.0242230919   -7.0673158379    0.1559311806
H       -4.1131111939   -6.7503228486    1.5040080689
H       -3.3790755688   -7.2040531078    5.1812734520
H       -3.8400563061   -6.2353759593    3.7835420896
27   

C       -2.0084016785   -0.7522403448    1.9731368302
C       -0.7347617918   -0.9230989819    1.4008553495
C       -2.8864896984   -1.8421429137    2.0758696767
C       -0.3341377738   -2.1826674969    0.9303558193
C       -2.4753338111   -3.0929805083    1.6037290805
C       -1.2228889780   -3.2534410352    1.0424911680
C       -3.2266320481   -4.3506071368    1.6371186600
C       -2.2692075878   -7.7437422477    1.9987581456
C       -2.2338723811   -7.6932647892    3.3386759876
C       -3.0522741555   -6.8047697322    1.1019614710
C       -2.9553844133   -6.7084033778    4.1876168472
N       -2.5283446987   -5.4574985204    1.2033324330
O       -4.3863556582   -4.4205533281    2.0209224622
O       -0.9916368511   -5.1302378271   -0.9125940303
O        0.1280297917   -5.6158853186    1.2335441606
S       -1.0075550113   -4.9776742120    0.5506177975
Br      -1.7076633127   -5.2869994921    4.7833586825
H       -2.3127703519    0.2219460888    2.3398539418
H       -0.0572288397   -0.0801199380    1.3247576769
H       -3.8699909904   -1.7283590431    2.5213559916
H        0.6484542654   -2.3255521931    0.4903079435
H       -1.6943325050   -8.5239574023    1.5113722162
H       -1.6521422094   -8.4505712962    3.8535217659
H       -2.9848141117   -7.1459361694    0.0627556596
H       -4.1124218622   -6.8316034925    1.3781248252
H       -3.3521933777   -7.2184328157    5.0705252471
H       -3.8051247936   -6.2716974095    3.6569747471
27   

C       -1.9603465201   -0.3548635754    1.7552217185
C       -0.6739519957   -0.5417620434    1.2175259374
C       -2.8398464080   -1.4421896990    1.8718316282
C       -0.2619940558   -1.8148173290    0.7955615653
C       -2.4172876363   -2.7064716072    1.4481310967
C       -1.1524455520   -2.8827402005    0.9206258433
C       -3.1681535462   -3.9634500784    1.5039517785
C       -2.2552179313   -7.3651411131    1.9663081283
C       -2.1016192111   -7.1818079637    3.2863494365
C       -2.9901478444   -6.4281046657    1.0259263298
C       -2.8697100749   -6.2190266955    4.1176706388
N       -2.4592177528   -5.0829385164    1.1228548060
O       -4.3360377770   -4.0234189269    1.8639547016
O       -0.8784380278   -4.8199314128   -0.9690143589
O        0.1958237801   -5.2362253163    1.2146854254
S       -0.9253886445   -4.6213099333    0.4880136384
Br      -1.6850158175   -4.7433947416    4.7094622476
H       -2.2735449173    0.6297961415    2.0846293021
H        0.0046402045    0.2993253260    1.1307561981
H       -3.8331949933   -1.3160330438    2.2913910244
H        0.7304736373   -1.9700345311    0.3827105840
H       -1.7149822586   -8.1882387643    1.5109240979
H       -1.4638973762   -7.8817676990    3.8158883678
H       -2.8856238095   -6.7863686564   -0.0044580836
H       -4.0606356859   -6.4411748388    1.2600281733
H       -3.2525767176   -6.7357704368    5.0028223335
H       -3.7318137862   -5.8222167801    3.5752937857
27   

C       -2.0010862596   -0.5283490480    1.8594655471
C       -0.7087202370   -0.7163705224    1.3367092884
C       -2.8867381750   -1.6126198383    1.9547471053
C       -0.2972466631   -1.9873636317    0.9078060403
C       -2.4642541140   -2.8747673951    1.5247137747
C       -1.1941747964   -3.0522397598    1.0109338963
C       -3.2209383803   -4.1286397667    1.5605905108
C       -2.4339083145   -7.5649492623    1.9927746249
C       -2.1354359815   -7.3151813326    3.2784786854
C       -3.0652661811   -6.5799642881    1.0241176187
C       -2.8704591038   -6.3674081115    4.1556929217
N       -2.5117297832   -5.2496347342    1.1837665996
O       -4.3937520670   -4.1850806997    1.9048617966
O       -0.9173885856   -4.9729235117   -0.8950472633
O        0.1417044071   -5.4153296931    1.2908546436
S       -0.9720347425   -4.7878830953    0.5635289767
Br      -1.6636794909   -4.9081931414    4.7432114119
H       -2.3141736727    0.4546272628    2.1939905032
H       -0.0252296598    0.1223044868    1.2668266675
H       -3.8847745649   -1.4858965477    2.3628984521
H        0.6997467469   -2.1433246799    0.5063556576
H       -1.9793146536   -8.4429572998    1.5466117963
H       -1.4768770948   -8.0173408015    3.7788195781
H       -2.8963753117   -6.9207348465   -0.0037334308
H       -4.1502475169   -6.5670668593    1.1776934493
H       -3.2265218597   -6.9022272739    5.0412925511
H       -3.7478790180   -5.9573535650    3.6482021806
27   

C       -2.0837672857   -0.4478353525    1.9526622923
C       -0.7878250356   -0.6395970547    1.4402469733
C       -2.9868777908   -1.5205495400    2.0026353509
C       -0.3904348554   -1.9026221757    0.9757411652
C       -2.5781247521   -2.7748360176    1.5378018913
C       -1.3048231088   -2.9560356031    1.0332492590
C       -3.3531157252   -4.0177399249    1.5285283883
C       -2.7331514256   -7.4575460379    1.9556633202
C       -2.2824635722   -7.1638540464    3.1889700416
C       -3.2287078952   -6.4540594694    0.9251220536
C       -2.9451420919   -6.2134980658    4.1228458576
N       -2.6556931917   -5.1377968962    1.1279425997
O       -4.5288649864   -4.0677762866    1.8637175839
O       -1.0418397183   -4.8212312624   -0.9293450846
O       -0.0062359196   -5.3480532893    1.2487914849
S       -1.1044795015   -4.6804448355    0.5338185880
Br      -1.6767350008   -4.7926625281    4.6722812204
H       -2.3860315803    0.5287575988    2.3147162805
H       -0.0906154210    0.1899356446    1.4061788487
H       -3.9877171544   -1.3914035755    2.4031070904
H        0.6092935172   -2.0614438279    0.5823703388
H       -2.3940042583   -8.4002068943    1.5398644702
H       -1.6230884268   -7.8885869479    3.6549103789
H       -2.9747869671   -6.8092440221   -0.0801563117
H       -4.3224260522   -6.4030412702    0.9713878726
H       -3.2668094611   -6.7562042734    5.0167812595
H       -3.8376988179   -5.7750707984    3.6675718457
27   

C       -2.2743715452   -0.6511544873    1.8374740902
C       -0.9921984075   -0.8231428135    1.2849886355
C       -3.1777877704   -1.7242161409    1.8668039649
C       -0.6092317481   -2.0663818988    0.7587550175
C       -2.7830276210   -2.9588275125    1.3412492145
C       -1.5238111673   -3.1205553722    0.7960001441
C       -3.5582306253   -4.2008777671    1.3070400363
C       -3.1309207005   -7.5813606233    1.7597626086
C       -2.5016044253   -7.2935892970    2.9190447598
C       -3.4490403754   -6.6155622683    0.6299927328
C       -2.9889088981   -6.3056740845    3.9238525774
N       -2.8701233008   -5.3057105773    0.8526511846
O       -4.7238904188   -4.2646329849    1.6737950694
O       -1.3318279201   -4.9076414864   -1.2465218268
O       -0.2193145765   -5.5208098693    0.8697570515
S       -1.3410041095   -4.8242104395    0.2222952643
Br      -1.5835793163   -4.9671596334    4.3245616717
H       -2.5653941078    0.3099669091    2.2470417145
H       -0.2942856216    0.0062993785    1.2679072189
H       -4.1675419123   -1.6109453472    2.2984325547
H        0.3800583037   -2.2098658716    0.3344172743
H       -2.9872443730   -8.5980561811    1.4103752454
H       -1.8943804357   -8.0869964638    3.3420033456
H       -3.0831808824   -7.0263564204   -0.3180051569
H       -4.5369626336   -6.5265559339    0.5319703090
H       -3.2402008472   -6.8315236282    4.8498685354
H       -3.8984195706   -5.8112624283    3.5705630590
27   

C       -2.3235431342   -0.7263391751    1.8624204931
C       -1.0395033378   -0.8697641148    1.3061236189
C       -3.2213263949   -1.8043894407    1.8480015685
C       -0.6488607566   -2.0892369206    0.7321103279
C       -2.8191803376   -3.0153355563    1.2752511874
C       -1.5576208240   -3.1490069466    0.7261417744
C       -3.5869409320   -4.2599807940    1.1948671094
C       -3.2988511479   -7.4975833474    1.7644863918
C       -2.5669806135   -7.2211404201    2.8736703033
C       -3.4332301542   -6.6682588729    0.5019962997
C       -2.9247399161   -6.2130769203    3.9160057398
N       -2.8942301002   -5.3371052296    0.6866858083
O       -4.7473462790   -4.3510021880    1.5724256190
O       -1.3393290599   -4.8560769768   -1.3823240655
O       -0.2457647232   -5.5493612761    0.7188498198
S       -1.3619011063   -4.8287725461    0.0883888445
Br      -1.4409264271   -4.9288548549    4.1847699659
H       -2.6201879003    0.2163231298    2.3091303938
H       -0.3458427065   -0.0367873072    1.3234587938
H       -4.2121814999   -1.7134544731    2.2823137901
H        0.3421357845   -2.2107425426    0.3049471810
H       -3.3510007528   -8.5560914505    1.5340649666
H       -2.0290300529   -8.0659561383    3.2908395902
H       -2.9255609864   -7.1713934528   -0.3288879536
H       -4.4924309785   -6.5946935433    0.2303027610
H       -3.1160440509   -6.7263861378    4.8632068534
H       -3.8400087223   -5.6826930991    3.6362581783
27   

C       -2.1639274847   -0.5936554209    2.1245597765
C       -0.8589106275   -0.7055503454    1.6115665989
C       -3.0413816709   -1.6868204757    2.0620588388
C       -0.4261327525   -1.9091673490    1.0349221143
C       -2.5984913682   -2.8813113531    1.4847627499
C       -1.3147295507   -2.9844334360    0.9820648347
C       -3.3442736861   -4.1353123469    1.3500737103
C       -3.1001779352   -7.1964923238    2.0838930992
C       -2.3578907102   -6.8922710436    3.1893321627
C       -3.0793036541   -6.5504790748    0.7129626751
C       -2.7244262811   -5.9153196324    4.2602966305
N       -2.6348427570   -5.1752941370    0.7899060436
O       -4.5053498969   -4.2602746184    1.7159601847
O       -0.9150357799   -4.6463406948   -1.1352184693
O       -0.0008294837   -5.3823953708    1.0356695041
S       -1.0617650977   -4.6494763252    0.3285378690
Br      -1.2831296328   -4.5782212566    4.4946330226
H       -2.4929985531    0.3368152250    2.5739852520
H       -0.1816807126    0.1393478407    1.6644778574
H       -4.0488037432   -1.6194367235    2.4609392807
H        0.5810985696   -2.0067461905    0.6408268706
H       -3.2918838372   -8.2587602581    1.9792622047
H       -1.8316145483   -7.7407349145    3.6139876428
H       -2.4243248282   -7.1234171637    0.0466757002
H       -4.0858367948   -6.5790651690    0.2806624496
H       -2.8678737631   -6.4466661363    5.2060713988
H       -3.6650610712   -5.4148466422    4.0088403881
