18   

C        4.6331489381    1.3459722904    0.7538182907
C        5.8139907145    1.1162717286    0.0578439025
C        3.5008874128    0.5758692131    0.4819786556
C        5.8525191704    0.1176164280   -0.9129831903
C        3.5148812075   -0.4449182471   -0.4880718959
C        4.7243040743   -0.6614946585   -1.1988640910
C        2.2836726517   -1.2595635898   -0.7409971179
C        0.9255131882   -0.7892421561   -0.2311504580
O        2.3102354744   -2.3131859061   -1.3628699842
O        4.8394502545   -1.6001087073   -2.1827804523
H        4.5933087584    2.1217186644    1.5103738918
H        6.6964253895    1.7112887999    0.2677202266
H        2.6063407932    0.7855760468    1.0569106905
H        6.7762154305   -0.0470308122   -1.4536463156
H        0.7670971133    0.2586431195   -0.4992965395
H        0.8758646449   -0.9036686801    0.8547635650
H        0.1296915110   -1.3874174917   -0.6844093740
H        5.7506973966   -1.6457513489   -2.5119243758
18   

C        4.6560720002    1.3455003281    0.7980864351
C        5.8087066387    1.1619622828    0.0407734326
C        3.5350944513    0.5453601376    0.5677991315
C        5.8294911155    0.1814569354   -0.9507644271
C        3.5390812337   -0.4554416673   -0.4197620245
C        4.7108291672   -0.6248424569   -1.1941939717
C        2.3294741382   -1.3189268933   -0.6179731070
C        0.9406437166   -0.7750284700   -0.3057242986
O        2.4123600260   -2.4711546229   -1.0185709282
O        4.7846255352   -1.5399450209   -2.2039744513
H        4.6309738009    2.1060787476    1.5704842177
H        6.6827894359    1.7791407811    0.2191878949
H        2.6587921132    0.7057303516    1.1858787887
H        6.7286194097    0.0543171299   -1.5406950474
H        0.8585712287    0.2596014314   -0.6492619191
H        0.7583989669   -0.8184453715    0.7710675336
H        0.1829331674   -1.3739965209   -0.8189729744
H        5.6888866523   -1.5978302246   -2.5507691989
18   

C        4.7236058533    1.2900806828    0.8579608995
C        5.8289614519    1.1404001103    0.0240818654
C        3.5968832321    0.4855203685    0.6732469358
C        5.7968165007    0.1891055177   -0.9967348257
C        3.5526894013   -0.4797736068   -0.3443829146
C        4.6707240161   -0.6193332179   -1.1921515773
C        2.3474367075   -1.3659700565   -0.4960315700
C        0.9502040551   -0.7750503149   -0.3656897221
O        2.4567350047   -2.5681761037   -0.6810882383
O        4.6741181635   -1.5111447773   -2.2252947938
H        4.7408016256    2.0260546828    1.6540197177
H        6.7074982705    1.7604686017    0.1669971876
H        2.7546132495    0.6093641832    1.3450198045
H        6.6581161462    0.0867103533   -1.6450196211
H        0.8937600116    0.1644803527   -0.9218803885
H        0.7197858226   -0.5888425237    0.6860965446
H        0.2119788146   -1.4706903554   -0.7747292894
H        5.5609874341   -1.5831980546   -2.6129039187
18   

C        4.7769615520    1.2316691172    0.9525417446
C        5.8308165023    1.1371719259    0.0451623766
C        3.6523811039    0.4162228940    0.8024124374
C        5.7505626092    0.2283881353   -1.0123181574
C        3.5638512259   -0.4991184923   -0.2538192506
C        4.6258028073   -0.5893714815   -1.1706776213
C        2.3643005783   -1.4049516050   -0.3769963154
C        0.9631906838   -0.8087622886   -0.4041814285
O        2.4840695210   -2.6188476484   -0.3551165292
O        4.5692324777   -1.4487951325   -2.2294477586
H        4.8335867861    1.9317161697    1.7785917688
H        6.7073849889    1.7655608691    0.1612310574
H        2.8511565594    0.4895705865    1.5296132529
H        6.5719452271    0.1659717058   -1.7151804492
H        0.7939813237   -0.3288123781   -1.3717157988
H        0.8460013426   -0.0657400516    0.3877130900
H        0.2178470913   -1.5966133513   -0.2633225113
H        5.4326237738   -1.5044310859   -2.6700834917
18   

C        4.8386256925    1.1837746391    1.0318077039
C        5.8391247737    1.1234480575    0.0622275458
C        3.7104653072    0.3667376636    0.9204153735
C        5.7020285203    0.2466483821   -1.0169378079
C        3.5680907327   -0.5143591444   -0.1557819405
C        4.5729332319   -0.5718901591   -1.1338144353
C        2.3581691156   -1.4159331338   -0.2556184048
C        0.9906649334   -0.8060596167   -0.5242998715
O        2.4380934431   -2.6069932263   -0.0090216900
O        4.4535330692   -1.4055747713   -2.2079335934
H        4.9388034930    1.8590087385    1.8741959224
H        6.7180227800    1.7535687693    0.1470482057
H        2.9441390926    0.4108631641    1.6870672487
H        6.4818006612    0.2098620726   -1.7673926797
H        0.9020948090   -0.5743585198   -1.5889998859
H        0.8687355596    0.1144997499    0.0517291413
H        0.2026521721   -1.5106234271   -0.2442698324
H        5.2844428406   -1.4338337790   -2.7101018667
18   

C        4.9142367489    1.1369592904    1.1193396144
C        5.8512057900    1.1056343432    0.0868139556
C        3.7790521339    0.3245279131    1.0545416343
C        5.6429454269    0.2631489729   -1.0082885226
C        3.5701342767   -0.5278990587   -0.0328433599
C        4.5065762541   -0.5506182373   -1.0771576759
C        2.3326806703   -1.3957109205   -0.1114142168
C        1.0784385316   -0.8460172384   -0.7723219180
O        2.3184521221   -2.5209620057    0.3569035494
O        4.3134659174   -1.3497971944   -2.1669313787
H        5.0674404954    1.7880053838    1.9727148004
H        6.7346539696    1.7333021825    0.1344140533
H        3.0568450029    0.3492429994    1.8638800164
H        6.3722999335    0.2506649123   -1.8085871211
H        1.2780002311   -0.6567855624   -1.8303910808
H        0.7866783230    0.0903330457   -0.2900626375
H        0.2598383732   -1.5659183745   -0.6856043107
H        5.1000016354   -1.3407319491   -2.7372607272
18   

C        4.9701236785    1.0775134529    1.1664757165
C        5.8557072075    1.0796483471    0.0891756632
C        3.8243295764    0.2788919426    1.1243309099
C        5.5867961224    0.2831553732   -1.0270885096
C        3.5543983572   -0.5279086104    0.0145702431
C        4.4399970956   -0.5176555209   -1.0743652825
C        2.2910481144   -1.3567723676   -0.0306313630
C        1.1372968896   -0.9255122210   -0.9244363695
O        2.1822206524   -2.3746476185    0.6332516641
O        4.1962937577   -1.2792286514   -2.1808200913
H        5.1704861285    1.6926067158    2.0365915294
H        6.7469361730    1.6973334662    0.1191520160
H        3.1399478044    0.2782804944    1.9664977551
H        6.2787043622    0.2955178440   -1.8599787455
H        1.4640933626   -0.9008011643   -1.9669946569
H        0.8001106181    0.0722180359   -0.6322965209
H        0.3044945035   -1.6277954208   -0.8292803283
H        4.9509529553   -1.2383923055   -2.7917704343
18   

C        5.0275439378    1.0331201000    1.1988496274
C        5.8693797876    1.0699346278    0.0873066589
C        3.8679040532    0.2546136141    1.1683375815
C        5.5444626642    0.3277477805   -1.0519107640
C        3.5428392847   -0.4978245275    0.0325380724
C        4.3838304713   -0.4537562568   -1.0906134190
C        2.2553888184   -1.2841796603    0.0325155930
C        1.1591129129   -0.9687911245   -0.9756944845
O        2.0621335897   -2.1526924064    0.8700791312
O        4.0927668600   -1.1675913785   -2.2168892080
H        5.2720953915    1.6059341365    2.0863599580
H        6.7711740693    1.6724440803    0.1090976091
H        3.2161623885    0.2267323003    2.0359150077
H        6.2053685747    0.3665628970   -1.9088113994
H        1.4157837906   -1.3922634125   -1.9496846316
H        1.0486531978    0.1141996687   -1.0734577253
H        0.2091334342   -1.3948458477   -0.6416948152
H        4.8195654907   -1.0957418061   -2.8582406080
18   

C        5.0238361908    0.8999920695    1.2659797258
C        5.8416194335    0.9702153986    0.1386765655
C        3.8345499052    0.1689903836    1.2190311664
C        5.4646539593    0.3073213267   -1.0328081945
C        3.4536816969   -0.5034781805    0.0479737210
C        4.2747115648   -0.4279478869   -1.0907943777
C        2.1348636819   -1.2265628262    0.0548249545
C        1.1353179467   -1.0626733662   -1.0823055264
O        1.8274942007   -1.9241431991    1.0129604984
O        3.9434472724   -1.0671395334   -2.2503999799
H        5.3089641540    1.4111590166    2.1786758872
H        6.7657756027    1.5371829154    0.1735389506
H        3.2018534774    0.1189402753    2.0999340536
H        6.1098013390    0.3710748622   -1.9001601464
H        1.3051683031   -1.8365739564   -1.8352862139
H        1.2542595966   -0.0793807871   -1.5448699888
H        0.1156782370   -1.1523488278   -0.6980622703
H        4.6519625519   -0.9606614392   -2.9073074078
18   

C        5.0770859517    0.8538707166    1.2798328198
C        5.8709491507    0.9418142708    0.1379459134
C        3.8596999682    0.1714424311    1.2314795050
C        5.4437162302    0.3423579926   -1.0495379456
C        3.4201689122   -0.4326382186    0.0407205300
C        4.2257620383   -0.3456372134   -1.1122392157
C        2.0824425880   -1.1168180306    0.0737127527
C        1.1450247285   -1.1282066670   -1.1274519404
O        1.6868705618   -1.6163858788    1.1214236485
O        3.8643381275   -0.9313095033   -2.2907165769
H        5.4021335953    1.3140636724    2.2062138839
H        6.8168008535    1.4716839206    0.1745174891
H        3.2517158945    0.1132798231    2.1292577521
H        6.0745883313    0.4160722183   -1.9265513445
H        1.3817877459   -1.9792812930   -1.7712182627
H        1.2539718285   -0.2015532719   -1.6969045452
H        0.1083068424   -1.2131498057   -0.7905180778
H        4.5637841081   -0.8096121775   -2.9547052375
18   

C        5.0830098398    0.7998025250    1.3193374826
C        5.8609612075    0.8893162939    0.1682670013
C        3.8307047940    0.1846207058    1.2692036549
C        5.3831669853    0.3571647945   -1.0306944856
C        3.3329246644   -0.3496816010    0.0655402595
C        4.1299666601   -0.2644106907   -1.0982630633
C        1.9669680649   -0.9783938683    0.1183463243
C        1.1066664404   -1.2078728061   -1.1190034345
O        1.4736853313   -1.2520117208    1.2086311714
O        3.7350381045   -0.7845958034   -2.2960989593
H        5.4471614787    1.2072293516    2.2558396350
H        6.8338620544    1.3675767428    0.2066521065
H        3.2452422380    0.1312731458    2.1820301177
H        6.0042438910    0.4300994091   -1.9147456829
H        1.4613433483   -2.0904135942   -1.6576421616
H        1.1513421389   -0.3346739327   -1.7748359845
H        0.0656042441   -1.3687660062   -0.8255543198
H        4.4289763348   -0.6537210154   -2.9640896016
18   

C        5.1368197585    0.7417162969    1.3248051956
C        5.9095594546    0.8403127794    0.1720257319
C        3.8570325086    0.1876727448    1.2623507863
C        5.3966425121    0.3825851951   -1.0421944968
C        3.3234184494   -0.2794076574    0.0452144916
C        4.1148238386   -0.1761445617   -1.1239601818
C        1.9337491216   -0.8573044862    0.0966843421
C        1.2005330500   -1.4089625527   -1.1209809536
O        1.3396025054   -0.8958518344    1.1707119722
O        3.6851390457   -0.6003468838   -2.3470148836
H        5.5263533455    1.0945460166    2.2731866349
H        6.9041073066    1.2707883793    0.2201115499
H        3.2829163634    0.1269120879    2.1818019800
H        6.0121750812    0.4673545048   -1.9290721471
H        1.7624868918   -2.2430101689   -1.5489830460
H        1.0763610401   -0.6226347628   -1.8699041979
H        0.2104203889   -1.7704839060   -0.8294344604
H        4.3713632822   -0.4426378715   -3.0171390192
18   

C        5.1399417163    0.6652486324    1.3459473781
C        5.9096647854    0.7742043541    0.1910281682
C        3.8354123420    0.1734434769    1.2713793555
C        5.3676157645    0.3938528264   -1.0379942559
C        3.2784060294   -0.2209447857    0.0400085805
C        4.0604104863   -0.1001400417   -1.1308297813
C        1.8700857630   -0.7495810726    0.0729884152
C        1.2736310569   -1.6023570469   -1.0409367192
O        1.1817370469   -0.5623994570    1.0720154821
O        3.5850170318   -0.4302229616   -2.3663127627
H        5.5512228152    0.9613322890    2.3044992213
H        6.9234472798    1.1558848684    0.2485399764
H        3.2594731965    0.0975903033    2.1886606242
H        5.9783432639    0.4912399948   -1.9268869173
H        2.0021429713   -2.3446658336   -1.3768482691
H        0.9848882068   -0.9648486489   -1.8805891779
H        0.3865908980   -2.1271239786   -0.6754385171
H        4.2577060730   -0.2491430690   -3.0442430670
18   

C        4.6333768191    1.9329423997    0.1016786149
C        5.7639059343    1.1271494333   -0.0185698375
C        3.3673870202    1.3994544985   -0.1487914753
C        5.6227471496   -0.2114805985   -0.3929187939
C        3.2150583195    0.0531707736   -0.5233993714
C        4.3596343153   -0.7594388414   -0.6478089359
C        1.8128965991   -0.4423375250   -0.7404684171
C        1.3901683279   -1.8645637179   -0.3936949183
O        0.9522594038    0.3377799710   -1.1334834336
O        4.2780505617   -2.0667810539   -1.0307560784
H        4.7339946967    2.9734951996    0.3893264997
H        6.7477676166    1.5406581519    0.1757532986
H        2.4961276602    2.0397654327   -0.0490805639
H        6.5116931802   -0.8227483470   -0.4862601583
H        1.9515963110   -2.2216955747    0.4735349417
H        1.5804915033   -2.5231805242   -1.2450589842
H        0.3233530247   -1.8887810883   -0.1552784920
H        5.1679976817   -2.4495710832   -1.1106418595
18   

C        4.6038665182    1.9101860115    0.1632564600
C        5.7455798941    1.1228543601    0.0179766255
C        3.3485204632    1.3794519201   -0.1423504704
C        5.6254972882   -0.1946666007   -0.4332677502
C        3.2220406354    0.0596335647   -0.6014095864
C        4.3721697945   -0.7365977911   -0.7421822115
C        1.8346911296   -0.4603524828   -0.8603795496
C        1.3845613287   -1.8153209548   -0.3307932292
O        1.0270533710    0.2333182828   -1.4650992017
O        4.2955817153   -2.0249552205   -1.1863186788
H        4.6882541983    2.9331521760    0.5125742062
H        6.7213269890    1.5335920578    0.2545023131
H        2.4634031228    1.9974366584   -0.0263277498
H        6.5209616403   -0.7939294529   -0.5410024148
H        1.9340127742   -2.0605326122    0.5818687836
H        1.5752747282   -2.5855254018   -1.0825676466
H        0.3151880120   -1.7905125791   -0.1045749001
H        5.1867920399   -2.4005922164   -1.2837862725
18   

C        4.5677681952    1.8358735828    0.2279249903
C        5.7211097816    1.0771153452    0.0291871525
C        3.3209929032    1.3122003974   -0.1228594898
C        5.6201360180   -0.2049570064   -0.5187120025
C        3.2153089642    0.0315659743   -0.6802449048
C        4.3744688262   -0.7369887711   -0.8717093211
C        1.8424448056   -0.5069535345   -0.9982155475
C        1.3227359113   -1.7549966006   -0.2980264276
O        1.1161397421    0.0785887642   -1.7873617398
O        4.3077430239   -1.9915239916   -1.4050438806
H        4.6371519533    2.8311649682    0.6523984883
H        6.6905323640    1.4820475527    0.2993329200
H        2.4257928325    1.9064027557    0.0313099172
H        6.5229384815   -0.7844248777   -0.6661801462
H        1.5658832473   -1.7084860928    0.7665510246
H        1.7834345735   -2.6454578189   -0.7323370740
H        0.2375702786   -1.8244697876   -0.4126315011
H        5.2019927454   -2.3428406105   -1.5520978966
18   

C        4.6407452443    1.8267863840    0.3526211161
C        5.8060269342    1.0973515533    0.1184315078
C        3.4030623344    1.3038490689   -0.0309010369
C        5.7247281091   -0.1547730624   -0.4966320831
C        3.3155562498    0.0559228380   -0.6556509592
C        4.4872822257   -0.6831423461   -0.8816549918
C        1.9654372511   -0.5117718287   -1.0299057302
C        1.3704526994   -1.6467045122   -0.2089593777
O        1.3447822698   -0.0803508760   -1.9876716388
O        4.4351908036   -1.9127836375   -1.4723310933
H        4.6941747968    2.7990208838    0.8295826346
H        6.7687041121    1.5009333610    0.4135540518
H        2.4994924095    1.8767642209    0.1506254310
H        6.6351819570   -0.7148092158   -0.6699235615
H        1.2538542093   -1.3262848580    0.8294249035
H        2.0321257789   -2.5158537410   -0.2421403847
H        0.3926784330   -1.9285682101   -0.6093670472
H        5.3327484525   -2.2407705777   -1.6491175441
18   

C        4.6248892584    1.7745558592    0.4295402161
C        5.8108742069    1.0983047908    0.1447064660
C        3.4005361016    1.2315423130    0.0308123680
C        5.7631400250   -0.1218562182   -0.5345104518
C        3.3466797739    0.0168816565   -0.6579505931
C        4.5387636003   -0.6692658416   -0.9339328756
C        2.0198763456   -0.5797356977   -1.0753633099
C        1.2887905541   -1.5108246527   -0.1210727909
O        1.5206570610   -0.3175839679   -2.1559872953
O        4.5151575347   -1.8730340257   -1.5773386539
H        4.6524069151    2.7216788454    0.9565907990
H        6.7633749234    1.5175500885    0.4507927925
H        2.4818685256    1.7654947017    0.2502823999
H        6.6885635911   -0.6432196849   -0.7451353137
H        1.1277895535   -1.0074186676    0.8355406596
H        1.8905383476   -2.4085650995    0.0435628528
H        0.3221835377   -1.8001812226   -0.5427707373
H        5.4178808287   -2.1576900529   -1.7965587152
18   

C        4.6013856040    1.6757169846    0.5019553998
C        5.8138783922    1.0740236904    0.1664643919
C        3.3982152900    1.0905254321    0.0986739630
C        5.8143188496   -0.1140582770   -0.5688151416
C        3.3916856427   -0.0971020480   -0.6391016682
C        4.6117914160   -0.7049139209   -0.9729664170
C        2.0871838922   -0.7101778706   -1.0964170613
C        1.1356211003   -1.2997714837   -0.0663161341
O        1.7301550443   -0.6361832941   -2.2595425139
O        4.6386701974   -1.8760920927   -1.6734219491
H        4.5922986114    2.5995605079    1.0694279103
H        6.7500530277    1.5271053290    0.4746889315
H        2.4605692416    1.5735497522    0.3525743705
H        6.7604453549   -0.5765526281   -0.8208542395
H        1.0916672164   -0.6580179329    0.8170442144
H        1.4931201891   -2.2895005934    0.2299047305
H        0.1322830368   -1.3936062321   -0.4909324520
H        5.5465804242   -2.0886073318   -1.9453018416
18   

C        4.5873769274    1.5891786526    0.5710031170
C        5.8160857203    1.0573663761    0.1832785286
C        3.4013773660    0.9691332496    0.1695989583
C        5.8506140550   -0.0972989793   -0.6016722673
C        3.4262035409   -0.1879580558   -0.6189376908
C        4.6666469919   -0.7254585794   -1.0048188303
C        2.1378869441   -0.8202344679   -1.0829247623
C        1.0683740594   -1.1964380794   -0.0661122231
O        1.8879807669   -0.9476320896   -2.2702253857
O        4.7369425974   -1.8663152945   -1.7506788663
H        4.5521594439    2.4877255336    1.1768117672
H        6.7387814507    1.5386784461    0.4893630510
H        2.4546726520    1.4086709977    0.4640783358
H        6.8099937052   -0.5059996827   -0.8934519397
H        0.9027593034   -0.3783769899    0.6383448540
H        1.3913757102   -2.0829372160    0.4860615877
H        0.1274389624   -1.4194581316   -0.5769826254
H        5.6446561671   -2.0152495857   -2.0614424436
18   

C        4.5896341971    1.4929909834    0.6481591160
C        5.8229804798    1.0375990330    0.1887727179
C        3.4169433033    0.8414435645    0.2592721180
C        5.8756164255   -0.0743790046   -0.6531174057
C        3.4536729761   -0.2734179294   -0.5920953886
C        4.7060734397   -0.7363168880   -1.0453526150
C        2.1758319672   -0.9312762710   -1.0345160578
C        1.0531050175   -1.1592909809   -0.0315611898
O        1.9925979962   -1.2542376615   -2.1979606306
O        4.8118148493   -1.8395188821   -1.8419021232
H        4.5398555680    2.3567566564    1.3016830877
H        6.7356601027    1.5434716340    0.4851598370
H        2.4673310126    1.2240328699    0.6168936092
H        6.8402145083   -0.4256927056   -0.9976816503
H        0.5363878115   -0.2181182984    0.1714442438
H        1.4657304695   -1.5555585317    0.9000846388
H        0.3356777110   -1.8805304002   -0.4332036568
H        5.7172439675   -1.9336582196   -2.1785106109
18   

C        4.5826632243    1.4237068695    0.7108281531
C        5.8176382519    1.0461818146    0.1930187214
C        3.4274337081    0.7374722381    0.3308361422
C        5.8899833810   -0.0242298874   -0.6980374995
C        3.4775569990   -0.3374059328   -0.5740333023
C        4.7395327167   -0.7229813544   -1.0840154129
C        2.2133872515   -1.0303569648   -0.9864765866
C        1.0264261491   -1.0897588699   -0.0326453999
O        2.0871653499   -1.5527736810   -2.0846796626
O        4.8844434278   -1.7840944771   -1.9299148636
H        4.5174260579    2.2542804489    1.4048018616
H        6.7168346543    1.5792298935    0.4829621125
H        2.4800889466    1.0673826336    0.7423462035
H        6.8577378486   -0.3155376634   -1.0868880498
H        0.4810625313   -0.1429476611   -0.0592289479
H        1.3745464530   -1.2829994985    0.9855319422
H        0.3512050259   -1.8974031908   -0.3294581125
H        5.7934630277   -1.8355861965   -2.2650854919
18   

C        4.6207900534    1.3814590599    0.7150208400
C        5.8377374102    1.0479810280    0.1324740542
C        3.4647988220    0.6795402156    0.3686603171
C        5.8910279071    0.0068742424   -0.7919491698
C        3.4892121383   -0.3712249734   -0.5686232400
C        4.7405654572   -0.7083133208   -1.1476939732
C        2.2250232610   -1.0910941863   -0.9251415909
C        0.9827395695   -0.9537662802   -0.0512910789
O        2.1364666913   -1.8138890230   -1.9086446949
O        4.8848073266   -1.7305616669   -2.0401900054
H        4.5697223196    2.1894924060    1.4362837993
H        6.7377644972    1.5924496002    0.3975958209
H        2.5379597908    0.9820618979    0.8421447752
H        6.8462522423   -0.2483905919   -1.2335671610
H        0.5472085774    0.0407829430   -0.1775933152
H        1.2438555576   -1.1115397150    0.9984648535
H        0.2392607856   -1.7023746986   -0.3401062832
H        5.7951709327   -1.7736718137   -2.3721084828
18   

C        4.6296201228    1.3631536594    0.7326776901
C        5.8322206830    1.0850063254    0.0954469411
C        3.4864214599    0.6250096212    0.4213919426
C        5.8829988007    0.0661347963   -0.8527034434
C        3.5073892624   -0.4113221858   -0.5332159435
C        4.7452474044   -0.6839005166   -1.1766033093
C        2.2589105601   -1.1798849009   -0.8387197265
C        0.9501179614   -0.8554548849   -0.1252595186
O        2.2285397163   -2.0876898648   -1.6594186106
O        4.8890443119   -1.6621162977   -2.1171690196
H        4.5801025680    2.1545147725    1.4723126747
H        6.7226535360    1.6565268282    0.3347956620
H        2.5753353048    0.8835827911    0.9479434198
H        6.8262915339   -0.1410745222   -1.3425141751
H        0.6576814855    0.1772124672   -0.3326086256
H        1.0667093300   -0.9982212566    0.9522097055
H        0.1566413281   -1.5196080694   -0.4802677214
H        5.8023436567   -1.6989124480   -2.4413937551
