17   

C        5.9131357508    0.1304479455   -0.8481078936
C        4.6764425716   -0.6282312984   -1.0436197808
C        5.9675130825    1.0647072502    0.1556720663
C        3.5816452153   -0.4470019345   -0.2372720023
C        4.8057991868    1.2798250225    0.9935643927
C        2.2659951024   -1.1421536125   -0.4086026817
C        2.0937021582   -2.2915863904   -1.3919095311
N        3.6694728086    0.5341597805    0.7807743677
O        4.8117127587    2.1115926043    1.8836396639
O        1.2844112229   -0.7092932295    0.1842437942
H        6.7727990370   -0.0389695085   -1.4884651145
H        4.6446279885   -1.3464708661   -1.8552428576
H        6.8513860071    1.6577518460    0.3456239198
H        2.7602321685   -3.1137335951   -1.1183452696
H        2.3251475982   -1.9545043016   -2.4053917710
H        1.0609222905   -2.6507957973   -1.3660124077
H        2.8703960519    0.7559655999    1.3664581442
17   

C        5.9026025605    0.1652822167   -0.8694514467
C        4.6589055294   -0.5745044709   -1.0908287193
C        5.9758617847    1.0402230866    0.1851513923
C        3.5834660551   -0.4497416214   -0.2487894074
C        4.8256246510    1.2145723161    1.0477943421
C        2.2471792405   -1.0928431639   -0.4736933631
C        2.0858834593   -2.2784083273   -1.4155777565
N        3.6851590159    0.4816244946    0.8138242829
O        4.8433849150    2.0028036915    1.9764874275
O        1.2419971995   -0.5386245452   -0.0465966649
H        6.7514254425    0.0306888469   -1.5321427385
H        4.6065718173   -1.2302140946   -1.9525211796
H        6.8647156608    1.6189107490    0.3950764571
H        2.6580832743   -3.1287348109   -1.0351267881
H        2.4383700586   -2.0183182054   -2.4163930476
H        1.0314957892   -2.5627637810   -1.4769259562
H        2.8853885431    0.7046717038    1.3976537119
17   

C        5.8871216919    0.2209528142   -0.9453225205
C        4.6328663803   -0.5018082196   -1.1635495827
C        6.0108937873    1.0152883818    0.1666401553
C        3.6045282893   -0.4538555016   -0.2576512753
C        4.9005260250    1.1261457559    1.0895794422
C        2.2465296070   -1.0559567065   -0.4933323175
C        2.0654016181   -2.2875956078   -1.3726844923
N        3.7501908103    0.4083712026    0.8569626500
O        4.9590492437    1.8486431668    2.0686868546
O        1.2512824461   -0.4054407909   -0.2061265544
H        6.7034392046    0.1384043734   -1.6556631943
H        4.5379225746   -1.0759960713   -2.0774621546
H        6.9093705917    1.5786890269    0.3771713003
H        2.4008533607   -3.1735154370   -0.8268678118
H        2.6335564141   -2.1966125218   -2.3000066729
H        1.0083275993   -2.4110300097   -1.6250171452
H        2.9733074213    0.6103797092    1.4775034911
17   

C        5.8730477095    0.2836454855   -0.9929624344
C        4.6132479791   -0.4209492860   -1.2363174634
C        6.0134626244    1.0116896855    0.1617321047
C        3.6013425379   -0.4282471819   -0.3126142550
C        4.9134553394    1.0747896259    1.1017915222
C        2.2352875803   -1.0068648768   -0.5900788114
C        2.0802615989   -2.3195801979   -1.3498207391
N        3.7560336015    0.3779608270    0.8416978475
O        4.9862689379    1.7378849297    2.1211299213
O        1.2549137168   -0.2830536710   -0.5134046149
H        6.6795954590    0.2403819043   -1.7177845233
H        4.4950781870   -0.9298356483   -2.1859355820
H        6.9168348246    1.5587031718    0.3934584376
H        2.0656916567   -3.1455306115   -0.6337160369
H        2.9027327401   -2.4774515539   -2.0491432237
H        1.1391541093   -2.3202890147   -1.9067189263
H        2.9886953105    0.5564331809    1.4802327844
17   

C        5.8538430533    0.4112895102   -1.0583558079
C        4.5899982013   -0.2778304771   -1.3226331220
C        6.0122182070    1.0683271570    0.1360876917
C        3.5912782317   -0.3358162693   -0.3893739771
C        4.9251207097    1.0765435464    1.0935849126
C        2.2241240464   -0.9227172934   -0.6800819235
C        2.1113980057   -2.3308310310   -1.2488196921
N        3.7589007095    0.4053975454    0.8058221684
O        5.0170253419    1.6666516062    2.1553336057
O        1.2725267753   -0.1776292616   -0.8361910436
H        6.6497395578    0.4089963983   -1.7961063980
H        4.4491931714   -0.7441215395   -2.2918107375
H        6.9208456020    1.5973751097    0.3881027615
H        1.9866849126   -3.0389286170   -0.4252561792
H        3.0107353040   -2.5980587077   -1.8078352181
H        1.2439487974   -2.4015111473   -1.9107184152
H        3.0091260398    0.5390473058    1.4747058812
17   

C        5.8321163149    0.5045518730   -1.1233624400
C        4.5511075813   -0.1149899769   -1.4645072484
C        6.0290259197    0.9533765093    0.1588985777
C        3.5478537131   -0.2468975202   -0.5457813942
C        4.9715457547    0.8009790800    1.1379226182
C        2.2190782802   -0.9123643688   -0.8553202577
C        1.9439428724   -2.3138720147   -0.3326618263
N        3.7883693940    0.1977776023    0.7775974746
O        5.1060334633    1.1832270533    2.2866063204
O        1.2871430145   -0.2533364983   -1.2786800561
H        6.6107001763    0.6116627665   -1.8717719117
H        4.3908186895   -0.4665796983   -2.4785725542
H        6.9512911541    1.4244135803    0.4697157563
H        2.4641487688   -2.4732863955    0.6151691391
H        2.3019387491   -3.0462328221   -1.0610726260
H        0.8702194773   -2.4555157585   -0.1821679923
H        3.0746144797    0.2017080532    1.4967586617
17   

C        5.8130807088    0.6186826213   -1.1626445124
C        4.5367766902    0.0094347126   -1.5381775611
C        6.0295796362    0.9412833103    0.1534112299
C        3.5413465505   -0.2103252775   -0.6269185319
C        4.9974077952    0.6658630507    1.1312389130
C        2.2620803939   -0.9397178983   -0.9788140454
C        1.8413435154   -2.1545683242   -0.1604588178
N        3.8170640438    0.0809378989    0.7337770889
O        5.1505515834    0.9231532082    2.3118629064
O        1.3949635532   -0.3917246713   -1.6356852497
H        6.5738287001    0.8128535725   -1.9118844258
H        4.3706775306   -0.2645962497   -2.5752465483
H        6.9499762558    1.3963849600    0.4922478689
H        2.2331678917   -2.1002040012    0.8574243684
H        2.2326253289   -3.0567799763   -0.6382654199
H        0.7507064793   -2.2222172409   -0.1197221619
H        3.1296723907   -0.0160196889    1.4713792216
17   

C        5.7772861319    0.7684491838   -1.1520877880
C        4.5144051611    0.1466355658   -1.5509756486
C        6.0188468302    0.9763892359    0.1826448690
C        3.5492855179   -0.1866642816   -0.6395001967
C        5.0256824932    0.5713683525    1.1559324326
C        2.3169975310   -0.9543562677   -1.0464371933
C        1.7838599401   -2.0658040909   -0.1498767764
N        3.8540145647   -0.0151305807    0.7356241416
O        5.2048221502    0.7184050350    2.3516701278
O        1.5514733184   -0.5003881308   -1.8801609597
H        6.5095687489    1.0583117946   -1.8987817086
H        4.3326027723   -0.0468384479   -2.6037660347
H        6.9322140922    1.4319520212    0.5394086364
H        1.7689440908   -1.7526829174    0.8959529290
H        2.4224402605   -2.9474156025   -0.2524031411
H        0.7673511868   -2.3340697155   -0.4515944800
H        3.2035881920   -0.2271431771    1.4820680055
17   

C        5.7656862200    0.8702787922   -1.1391170934
C        4.5300369650    0.2111095919   -1.5620081477
C        6.0165570502    1.0058369569    0.2034930737
C        3.5998078717   -0.2308578743   -0.6592301219
C        5.0600565346    0.4906194223    1.1619661843
C        2.4004493313   -1.0193468075   -1.1057766625
C        1.7665252491   -2.0445219506   -0.1741988380
N        3.9108165690   -0.1244617163    0.7208431864
O        5.2509179690    0.5702417731    2.3622749936
O        1.7582558882   -0.6634972888   -2.0813397249
H        6.4710948470    1.2431831290   -1.8747504319
H        4.3414531801    0.0760564181   -2.6229288242
H        6.9117675845    1.4834981015    0.5769775339
H        1.4959688046   -1.5812861201    0.7772755870
H        2.4730228460   -2.8597688584    0.0043480397
H        0.8650016227   -2.4582887609   -0.6351834797
H        3.2923700720   -0.4330120277    1.4606592430
17   

C        5.7485020929    0.9419447112   -1.1206541424
C        4.5306667650    0.2565790621   -1.5532354355
C        6.0301917153    1.0067065880    0.2213444093
C        3.6525239341   -0.2904090779   -0.6549309504
C        5.1228614338    0.3939562582    1.1706228642
C        2.4539807443   -1.0677588776   -1.1180386673
C        1.7342805999   -2.0201110595   -0.1719564049
N        3.9886281466   -0.2434643962    0.7223447305
O        5.3405779297    0.4145583348    2.3688315181
O        1.9254363648   -0.7978429940   -2.1860423422
H        6.4166179716    1.3899443129   -1.8491671808
H        4.3164675037    0.1866826326   -2.6157073397
H        6.9143290516    1.5000503335    0.6007618046
H        1.4015627937   -1.4866585044    0.7216257564
H        2.4093057938   -2.8309880082    0.1149858803
H        0.8618725066   -2.4509450009   -0.6717323080
H        3.4088472632   -0.6303585851    1.4565939288
17   

C        5.7119396684    1.0007452807   -1.1253455780
C        4.5285726370    0.2636271177   -1.5683312255
C        6.0100061274    1.0313149575    0.2143907090
C        3.7054487251   -0.3787117590   -0.6805186374
C        5.1522127925    0.3349137649    1.1520673383
C        2.5197847827   -1.1718559100   -1.1493680730
C        1.7362320624   -2.0504476831   -0.1830284183
N        4.0480178006   -0.3477971310    0.6955547564
O        5.3834026034    0.3285492108    2.3479129774
O        2.1089247694   -1.0374983989   -2.2928067971
H        6.3422694326    1.5133050735   -1.8449188655
H        4.3003604076    0.2306170555   -2.6296910542
H        6.8708343885    1.5595528913    0.6003719426
H        1.3433150972   -1.4464570202    0.6386721382
H        2.3875158868   -2.8332228776    0.2149026670
H        0.8991753106   -2.5221070051   -0.7059064283
H        3.5055733784   -0.7988316237    1.4216941593
17   

C        5.6717606608    1.0639920470   -1.1340201454
C        4.5259456542    0.2763829557   -1.5887287339
C        5.9832766582    1.0694357951    0.2030805089
C        3.7611081864   -0.4517666124   -0.7150190569
C        5.1749192459    0.2996780653    1.1273739387
C        2.5868448279   -1.2571693550   -1.1917704492
C        1.7421611813   -2.0633884835   -0.2140062122
N        4.1046566308   -0.4287504390    0.6608415833
O        5.4152004445    0.2758745810    2.3212083330
O        2.2979993940   -1.2712463204   -2.3796747577
H        6.2640279734    1.6334497678   -1.8430733796
H        4.2820154187    0.2740288109   -2.6470962947
H        6.8180909830    1.6325021347    0.5968838247
H        1.2977890034   -1.3975288989    0.5303353485
H        2.3637771933   -2.8108482896    0.2857745407
H        0.9393834920   -2.5757265996   -0.7521447601
H        3.5985328089   -0.9344484157    1.3771298251
17   

C        5.5974790104    1.1204407936   -1.1453667844
C        4.4926711631    0.2748161843   -1.5973546048
C        5.9294060185    1.1205213172    0.1868364886
C        3.7972412227   -0.5256767852   -0.7290774165
C        5.1806796312    0.2901896589    1.1089569547
C        2.6353004122   -1.3529533395   -1.1978756225
C        1.7377170655   -2.0737689152   -0.2007003094
N        4.1474077585   -0.4912764135    0.6448616797
O        5.4355522871    0.2657570989    2.2997489715
O        2.4609359928   -1.5396935368   -2.3933267147
H        6.1436067883    1.7366929805   -1.8523275841
H        4.2238302323    0.2844701060   -2.6496386083
H        6.7360100327    1.7245928937    0.5786594183
H        1.2506846459   -1.3442433727    0.4518694343
H        2.3285087507   -2.7685655276    0.4014683192
H        0.9669446686   -2.6368643692   -0.7348874915
H        3.6854534735   -1.0412115830    1.3583941531
17   

C        6.2671266245   -0.1045119385   -0.0468151279
C        5.2016605974   -1.0996667743   -0.1668776868
C        5.9277968494    1.2243536528    0.0120811050
C        3.8791654531   -0.7420714901   -0.1881625351
C        4.5315735911    1.6070693673   -0.0506016025
C        2.8031174041   -1.7669852026   -0.4035259428
C        1.4097936458   -1.3458361399   -0.8522479054
N        3.5594996426    0.6397216975   -0.1648716967
O        4.1859667729    2.7745329250   -0.0172478727
O        2.9716906851   -2.9186865758   -0.0316716827
H        7.3068185147   -0.4130775970   -0.0062753606
H        5.4692913779   -2.1500812425   -0.2348510127
H        6.6708147676    2.0047610531    0.1011496639
H        1.4659799233   -0.8950566161   -1.8468126546
H        0.9860716000   -0.6266369643   -0.1472856165
H        0.7551410024   -2.2208046732   -0.9007261954
H        2.6132933719    0.9989485338   -0.1894359850
17   

C        6.2581733238   -0.1203805993   -0.1237678814
C        5.1842672215   -1.1105400017   -0.2042676826
C        5.9267283370    1.2056096515    0.0019639219
C        3.8645757574   -0.7562803635   -0.1116008681
C        4.5303377436    1.5892847967    0.0455472015
C        2.7738708443   -1.7682767120   -0.3256359304
C        1.4237814484   -1.3344699790   -0.8821881968
N        3.5515936579    0.6253344470   -0.0352379137
O        4.1897306586    2.7552151301    0.1355604145
O        2.8478610604   -2.8717291498    0.1917436240
H        7.2975459615   -0.4299695363   -0.1646889982
H        5.4417384889   -2.1576975479   -0.3328187625
H        6.6754225331    1.9830354412    0.0661417895
H        1.5513319951   -0.9743198208   -1.9067212515
H        0.9935583941   -0.5407454852   -0.2673699362
H        0.7359844728   -2.1849112449   -0.8940042452
H        2.6067467435    0.9839670667    0.0252115176
17   

C        6.2290145698   -0.1397433519   -0.2210545308
C        5.1392162191   -1.1153863634   -0.2540694984
C        5.9249132716    1.1842865276   -0.0272164039
C        3.8350699803   -0.7546262144   -0.0481453543
C        4.5406487801    1.5793567032    0.1323005465
C        2.7100581202   -1.7427273109   -0.2256238851
C        1.4175389796   -1.3080087951   -0.9066415504
N        3.5474032168    0.6280349878    0.0887431590
O        4.2219010234    2.7446290618    0.2873477476
O        2.6670714108   -2.7597157670    0.4460183003
H        7.2586073432   -0.4581448749   -0.3489969448
H        5.3732619351   -2.1596934810   -0.4370926025
H        6.6857344894    1.9517405017    0.0077559420
H        1.5858118659   -1.2371349152   -1.9846936484
H        1.0830555328   -0.3390477971   -0.5307934996
H        0.6320207233   -2.0467976620   -0.7237715266
H        2.6160730733    0.9910142564    0.2501507220
17   

C        6.1973654392   -0.1524924108   -0.3726439146
C        5.0916882610   -1.1108512265   -0.3862459378
C        5.9317713311    1.1587254140   -0.0673917487
C        3.8129150645   -0.7479914620   -0.0658629252
C        4.5708020041    1.5583112003    0.2251352711
C        2.6433006371   -1.7024542371   -0.1830686826
C        1.4285365562   -1.3035467989   -1.0123565592
N        3.5608030335    0.6245543860    0.1886825288
O        4.2864090784    2.7129472715    0.4886926373
O        2.4842602734   -2.5917580194    0.6338754262
H        7.2091273576   -0.4735969378   -0.5985365673
H        5.2959736724   -2.1447469955   -0.6460984206
H        6.7062146751    1.9126518891   -0.0375346268
H        1.5564346123   -1.6781343672   -2.0315297311
H        1.3155510775   -0.2180323647   -1.0505777651
H        0.5214907194   -1.7419200334   -0.5871264971
H        2.6539966729    0.9786992856    0.4684078529
17   

C        6.1459156842   -0.1242772590   -0.4780033767
C        5.0176085293   -1.0558283334   -0.4961741938
C        5.9333554643    1.1637446414   -0.0534860227
C        3.7670383238   -0.6799469887   -0.0927472970
C        4.6047879036    1.5678190961    0.3607508952
C        2.5672923993   -1.6092903455   -0.1280453662
C        1.5168442758   -1.4348235291   -1.2139623778
N        3.5691069685    0.6630437374    0.3123845914
O        4.3727511298    2.7012269911    0.7418284461
O        2.3018030336   -2.3047498404    0.8352369586
H        7.1339751512   -0.4471259380   -0.7899166685
H        5.1835749800   -2.0759893401   -0.8268734657
H        6.7279070693    1.8959060342   -0.0124550032
H        1.8020939059   -2.0252673955   -2.0886648355
H        1.4436136795   -0.3837780903   -1.5043972047
H        0.5428385699   -1.7774792119   -0.8541108533
H        2.6928973109    1.0013842375    0.6924335031
17   

C        6.0936741924   -0.0677271090   -0.5652286764
C        4.9153904775   -0.9320337403   -0.6467508212
C        5.9791537318    1.1504419544    0.0564146460
C        3.6942522182   -0.5328527904   -0.1762688428
C        4.7063074741    1.5416063365    0.6269718502
C        2.4901168763   -1.4522332948   -0.1241555236
C        2.0421975836   -2.1829304827   -1.3829059777
N        3.6231260904    0.7002327082    0.5168377164
O        4.5685249494    2.6044051114    1.2061584054
O        2.1296882091   -1.9088465759    0.9467050932
H        7.0432607197   -0.3864864201   -0.9828547334
H        5.0274051498   -1.9172894456   -1.0863862653
H        6.8135963870    1.8315409362    0.1503190472
H        2.8815356688   -2.3334316723   -2.0652262850
H        1.2803189515   -1.5850420886   -1.8901271835
H        1.6138540658   -3.1546052842   -1.1222361287
H        2.7966886994    0.9936960524    1.0250769736
17   

C        6.0240673189   -0.0207804004   -0.6854967822
C        4.8362524857   -0.8712264875   -0.7783134840
C        5.9397895586    1.1634525712    0.0026978056
C        3.6299478674   -0.4837633315   -0.2568374593
C        4.6874167472    1.5363311462    0.6274143601
C        2.4285075552   -1.3949924198   -0.1932650926
C        2.0743013144   -2.3067289911   -1.3627878297
N        3.5908037637    0.7161574039    0.4947897462
O        4.5816833191    2.5622384368    1.2757846926
O        1.9368128236   -1.6581980057    0.8929816472
H        6.9593371817   -0.3255125569   -1.1439367473
H        4.9423608416   -1.8349194824   -1.2628083833
H        6.7843676711    1.8296710203    0.1115084445
H        2.9613428750   -2.5963561080   -1.9282074796
H        1.3896824936   -1.7780700459   -2.0313894026
H        1.5797576338   -3.2103906640   -0.9958518050
H        2.7829328559    0.9779009871    1.0490643072
17   

C        5.9871052830    0.0207495950   -0.7432829803
C        4.7850138696   -0.8075839255   -0.8528403173
C        5.9367342736    1.1679598082    0.0077922374
C        3.5972790777   -0.4367718741   -0.2765392429
C        4.7041573410    1.5265989665    0.6779760239
C        2.3735758340   -1.3102375635   -0.2338681400
C        2.0869763603   -2.3301585066   -1.3295930323
N        3.5922747278    0.7309283005    0.5256337131
O        4.6300946074    2.5178869336    1.3822074579
O        1.7457838108   -1.4009038984    0.8119685009
H        6.9068632874   -0.2714693162   -1.2396964183
H        4.8657686327   -1.7375706661   -1.4028835409
H        6.7936492856    1.8155145308    0.1317804994
H        2.9824943407   -2.9013759333   -1.5801226822
H        1.7265976860   -1.8104498126   -2.2214048124
H        1.3140204343   -3.0275741162   -0.9942371115
H        2.7948490834    0.9751149188    1.1034847980
17   

C        5.9556241046    0.0745283153   -0.8158256182
C        4.7376686839   -0.7309315204   -0.9200157073
C        5.9525597931    1.1807044063   -0.0036994923
C        3.5838576038   -0.3849710869   -0.2639081742
C        4.7523559017    1.5218326483    0.7317787083
C        2.3375478922   -1.2189739994   -0.2410791133
C        2.0883092342   -2.3019340272   -1.2821263930
N        3.6244588052    0.7477694419    0.5858030544
O        4.7205590559    2.4795202776    1.4840537233
O        1.6022919691   -1.1609443702    0.7366537706
H        6.8497585493   -0.2015367638   -1.3654512483
H        4.7720456271   -1.6235549421   -1.5342386267
H        6.8231855724    1.8100597863    0.1185028305
H        2.9009854007   -3.0320072538   -1.2715170219
H        2.0171955009   -1.8472430076   -2.2737967685
H        1.1489856081   -2.8178018315   -1.0632502288
H        2.8413620566    0.9846475117    1.1865294319
17   

C        5.9241616784    0.1085861332   -0.8283120424
C        4.7104396486   -0.6967258578   -0.9751631210
C        5.9273209614    1.1476491082    0.0681555403
C        3.5717258454   -0.4260322904   -0.2598670717
C        4.7368614235    1.4218888555    0.8462706767
C        2.3128572554   -1.2359473146   -0.3117005409
C        2.1151959939   -2.3359991603   -1.3454195408
N        3.6150213843    0.6466789938    0.6644057605
O        4.7080642898    2.3248817729    1.6635079917
O        1.4661278265   -1.0745732063    0.5597979753
H        6.8096329516   -0.1138674504   -1.4150293751
H        4.7337240640   -1.5273270419   -1.6717103213
H        6.7946284435    1.7743970579    0.2230159479
H        2.8897424977   -3.0986675513   -1.2324659307
H        2.1646557713   -1.9101086707   -2.3510031428
H        1.1359613534   -2.8034146593   -1.2077360132
H        2.8241216052    0.8529275729    1.2666464723
17   

C        5.9368583002    0.0968560536   -0.8680463903
C        4.7048948049   -0.6775506742   -1.0288789046
C        5.9794933298    1.0878012817    0.0804154688
C        3.5948888381   -0.4396215293   -0.2587513919
C        4.8110687436    1.3443226933    0.8970190395
C        2.2999404417   -1.1843748567   -0.3600517874
C        2.1025476008   -2.3101570774   -1.3656093538
N        3.6753604954    0.5908632621    0.7100493530
O        4.8120276533    2.2155177074    1.7485643024
O        1.3782794544   -0.8762857794    0.3874910119
H        6.8036268827   -0.1080679909   -1.4881270471
H        4.6894792021   -1.4564320417   -1.7830834158
H        6.8606238047    1.6923855216    0.2450472955
H        2.8229257771   -3.1094857468   -1.1735527721
H        2.2407036642   -1.9291874537   -2.3807589666
H        1.0910241105   -2.7162542365   -1.2748458650
H        2.8848870311    0.8109904303    1.3080710766
