25   

C        0.0079612260   -0.0832277835    1.3440215131
C        1.6315915788   -0.6648274863    2.9781618795
C       -0.8520823399   -1.0061591010    1.9387993155
C        1.2903646388    0.0991544980    1.8649608425
C        0.7119472157   -1.5728304396    3.5089865590
C        2.3068155728    1.0640187604    1.3402247223
C        2.8349519265    4.1083554850    0.8921901982
C        2.3051073769   -2.4958212351    5.2195568186
C        2.6596017215    2.9347065912   -0.0664400157
N       -0.5048320699   -1.7407944933    3.0047622705
N        0.9825834204   -2.3726653995    4.5938553688
O        3.4822700976    1.0157291554    1.6944492243
O        1.7633965729    1.9602501259    0.4871598488
H       -0.3296806972    0.4830462524    0.4848309721
H        2.6072607474   -0.5606384189    3.4320741266
H       -1.8438278781   -1.1360315296    1.5213088451
H        1.8649061962    4.5665160200    1.1069606280
H        3.2873705071    3.7720758454    1.8300431085
H        3.4883054153    4.8612361132    0.4417663718
H        3.0583315377   -2.7692007387    4.4730181635
H        2.2832275488   -3.2793978188    5.9835885403
H        2.5906118402   -1.5548231127    5.7010818288
H        3.6354073117    2.4904153901   -0.2928523092
H        2.2420045015    3.3013716442   -1.0093785802
H        0.2087139988   -2.9828222297    4.8318342954
25   

C       -0.0004107563   -0.1895936963    1.2474114771
C        1.6132868913   -0.6612449422    2.9260970329
C       -0.8554749410   -1.0896240552    1.8833493528
C        1.2749854004    0.0322566773    1.7672048216
C        0.6995053216   -1.5503926038    3.4972395395
C        2.2751099011    0.9929847864    1.2060392413
C        2.9420451782    4.0410167500    1.0429747361
C        2.2869275172   -2.3590139920    5.2693421356
C        2.5523488002    3.0054201602   -0.0070807572
N       -0.5098235151   -1.7613915508    2.9908286059
N        0.9682093602   -2.2840462254    4.6282857506
O        3.4806411401    0.8460240669    1.3892318389
O        1.6782889778    2.0174135929    0.5575825281
H       -0.3343023897    0.3310248939    0.3584245193
H        2.5838086379   -0.5153415303    3.3795681470
H       -1.8420374227   -1.2528964106    1.4653117963
H        2.0460450308    4.5186124221    1.4505314709
H        3.4981663912    3.5685814531    1.8583414345
H        3.5756009448    4.8089599643    0.5896927620
H        3.0493984133   -2.6611389427    4.5435561355
H        2.2679672399   -3.1026537446    6.0723759908
H        2.5573692056   -1.3911821668    5.7040811636
H        3.4534525688    2.5426677126   -0.4251277542
H        2.0321474073    3.5068470779   -0.8292354206
H        0.1999755982   -2.8912031810    4.8910083497
25   

C        0.0007069523   -0.2940639085    1.1515821548
C        1.6014939278   -0.6426243889    2.8713682775
C       -0.8424957538   -1.1805561237    1.8217349847
C        1.2641710229   -0.0203196030    1.6729261234
C        0.7007417136   -1.5228332909    3.4760371144
C        2.2388730825    0.9462395074    1.0763455470
C        3.0693616460    3.9576156718    1.1789419002
C        2.2831879902   -2.2058428198    5.3042636094
C        2.4688819744    3.0809626170    0.0845289655
N       -0.4963996932   -1.7878145945    2.9659013709
N        0.9704663712   -2.1902653835    4.6470720442
O        3.4461792767    0.7241135502    1.0741187539
O        1.6224066748    2.0714178149    0.6528364361
H       -0.3320092688    0.1784043955    0.2357847409
H        2.5629812297   -0.4478231021    3.3254201492
H       -1.8200949100   -1.3861785877    1.4013357267
H        2.2727911492    4.4211380297    1.7685437347
H        3.7044596778    3.3615526786    1.8412190129
H        3.6798004167    4.7462726736    0.7295137139
H        3.0601897491   -2.5244965144    4.6013193051
H        2.2713639796   -2.9114931465    6.1410170186
H        2.5274711033   -1.2129886760    5.6958945313
H        3.2700461566    2.6329326161   -0.5140692764
H        1.8704106427    3.7050313044   -0.5865635735
H        0.2130599254   -2.8020033088    4.9299673669
25   

C       -0.0075208328   -0.4071919940    1.0625891717
C        1.5751150576   -0.6201675352    2.8195098734
C       -0.8295299659   -1.2936705875    1.7588131904
C        1.2360438471   -0.0650175702    1.5894988981
C        0.6968919036   -1.5052508567    3.4497386292
C        2.1794534535    0.9113924770    0.9554244961
C        3.2290392070    3.8377760457    1.2747024504
C        2.2732874000   -2.0503214057    5.3290038022
C        2.4088811842    3.1383617141    0.1953609924
N       -0.4811601737   -1.8365532127    2.9342097683
N        0.9712726876   -2.1097499798    4.6534041393
O        3.3531611128    0.6264815485    0.7395978068
O        1.5883533516    2.1112718599    0.7700226404
H       -0.3408980400    0.0120603162    0.1216285247
H        2.5217382160   -0.3696669818    3.2768413825
H       -1.7917822180   -1.5535845349    1.3331005254
H        2.5659277178    4.2644177661    2.0331699211
H        3.9130362115    3.1307568616    1.7537711976
H        3.8189552560    4.6437517635    0.8286022977
H        3.0723020001   -2.3677958484    4.6506359892
H        2.2742245894   -2.7219946582    6.1933576280
H        2.4748697627   -1.0342191764    5.6835377384
H        3.0762435037    2.7276575976   -0.5707101849
H        1.7617518469    3.8723049338   -0.2951123456
H        0.2322020926   -2.7368664957    4.9508990411
25   

C       -0.0328841891   -0.5075549255    0.9928762766
C        1.5073228748   -0.5633423129    2.7973350023
C       -0.8201698293   -1.4185234075    1.6975889362
C        1.1693194218   -0.0679607045    1.5422480382
C        0.6662783155   -1.4789769804    3.4348339682
C        2.0741851249    0.9292091628    0.8797495816
C        3.3799418905    3.7267765063    1.3375178520
C        2.2236877277   -1.8753683828    5.3665930110
C        2.3396395463    3.2163107514    0.3454047666
N       -0.4747516335   -1.8981884071    2.9008839652
N        0.9435212017   -2.0274246006    4.6643949122
O        3.1652684577    0.6063853064    0.4221076675
O        1.5506166020    2.1719013569    0.9327287296
H       -0.3603859195   -0.1473047612    0.0258609289
H        2.4243797426   -0.2423931924    3.2699299685
H       -1.7508534655   -1.7531110608    1.2541931428
H        2.8876889884    4.0898105049    2.2446580761
H        4.0786616490    2.9280641565    1.6041647582
H        3.9465735187    4.5489891076    0.8908659555
H        3.0555702349   -2.1612602493    4.7141831375
H        2.2437060049   -2.5253270611    6.2471722148
H        2.3571069700   -0.8410286955    5.6999177184
H        2.8359573982    2.8694845101   -0.5679806141
H        1.6775944888    4.0412488186    0.0639818377
H        0.2356026147   -2.6895332800    4.9620150369
25   

C       -0.0351662533   -0.6212639092    0.9242864870
C        1.4465039748   -0.5115178132    2.7729245118
C       -0.7700660083   -1.5752625785    1.6284704462
C        1.1049630317   -0.0657313930    1.5003941698
C        0.6610970176   -1.4764607345    3.4089083722
C        1.9627876354    0.9576757738    0.8134414703
C        3.5371127384    3.5983263430    1.3241058758
C        2.1919533740   -1.7151043743    5.3875678106
C        2.2984359767    3.2756359062    0.4941611531
N       -0.4270915567   -1.9961688152    2.8540816072
N        0.9458869756   -1.9769544854    4.6570619232
O        2.9037030715    0.6344038105    0.0966837915
O        1.5505995361    2.2105863176    1.0979212205
H       -0.3528235747   -0.3203422455   -0.0660640851
H        2.3223869717   -0.1117617400    3.2627386756
H       -1.6541980496   -1.9967680746    1.1643910728
H        3.2461650230    3.8706068151    2.3430567217
H        4.2080955332    2.7347894555    1.3615607324
H        4.0762047813    4.4377840735    0.8754574466
H        3.0599885596   -1.9452275552    4.7607050649
H        2.2397372070   -2.3483628465    6.2791845012
H        2.2361563072   -0.6686185781    5.7064057201
H        2.5931156387    3.0201934375   -0.5299240483
H        1.6623169156    4.1646198769    0.4385963863
H        0.2836632081   -2.6870609094    4.9493423705
25   

C       -0.0314710786   -0.7146623570    0.8666234871
C        1.3754249784   -0.4491834931    2.7559473177
C       -0.7033878195   -1.7183131639    1.5643247721
C        1.0313365455   -0.0455824336    1.4697048514
C        0.6567210514   -1.4693612765    3.3847310920
C        1.8358574251    1.0114430516    0.7719612644
C        3.6639805688    3.4765774751    1.2839166596
C        2.1439854309   -1.5505284155    5.4092148950
C        2.2779505985    3.3318625616    0.6629841445
N       -0.3655617188   -2.0884901622    2.8075173712
N        0.9478821653   -1.9289626974    4.6470615133
O        2.5801020131    0.7383299331   -0.1636412709
O        1.5694971188    2.2396673084    1.2656115009
H       -0.3344548329   -0.4646515234   -0.1424953126
H        2.2003346252    0.0288920999    3.2636716001
H       -1.5296186860   -2.2249002603    1.0791009514
H        3.5777109362    3.6305858716    2.3636962946
H        4.2625711884    2.5799397325    1.0964682518
H        4.1794265844    4.3361451595    0.8457034419
H        3.0471272386   -1.7119597769    4.8111704229
H        2.2197257902   -2.1662477833    6.3111254690
H        2.0876588839   -0.5003166211    5.7135501706
H        2.3678913243    3.1953128021   -0.4205455375
H        1.7118060863    4.2536145969    0.8299169579
H        0.3402545301   -2.6893939316    4.9313447535
25   

C       -0.0139868108   -0.7744325282    0.8201182886
C        1.3109634356   -0.3814774233    2.7450938763
C       -0.6217774236   -1.8248033157    1.5073412873
C        0.9698053838   -0.0121552857    1.4471367435
C        0.6600827382   -1.4527391612    3.3627758784
C        1.7132082991    1.0875839118    0.7530705716
C        3.7597349140    3.3790452242    1.2252797234
C        2.0879560554   -1.3953602250    5.4307057219
C        2.2830323427    3.3818503894    0.8415716246
N       -0.2915036981   -2.1570656050    2.7631076995
N        0.9532903133   -1.8804400194    4.6357967745
O        2.2533133868    0.9078238572   -0.3334929448
O        1.6120859241    2.2560960688    1.4249874581
H       -0.3026026422   -0.5600526765   -0.2015953117
H        2.0805755662    0.1642396137    3.2713294280
H       -1.3878299478   -2.4019854549    1.0026047994
H        3.8651166646    3.3973035723    2.3141575312
H        4.2553280912    2.4860301396    0.8323536159
H        4.2535951465    4.2618341124    0.8089416849
H        3.0205373323   -1.4871114290    4.8639296759
H        2.1848386938   -1.9930541001    6.3426628915
H        1.9345194625   -0.3503729933    5.7191527397
H        2.1817218216    3.3813672025   -0.2495136467
H        1.8173990809    4.3004239443    1.2122518108
H        0.4011111407   -2.6853737070    4.9105223355
25   

C        0.0407559146   -0.8191597687    0.7769051327
C        1.2668838117   -0.3354897300    2.7450069431
C       -0.5101773913   -1.9141175569    1.4415726249
C        0.9446829862    0.0132579000    1.4358329513
C        0.6770136617   -1.4544556772    3.3391270602
C        1.6187093045    1.1674762983    0.7636076975
C        3.8320627377    3.3147161070    1.1497889210
C        2.0218996786   -1.2952206676    5.4569888480
C        2.3149309029    3.4142543429    1.0214891066
N       -0.1984457880   -2.2256523740    2.7070798943
N        0.9580806760   -1.8641481491    4.6207938443
O        1.9676164183    1.1066745002   -0.4112201244
O        1.6882116498    2.2482142631    1.5742785240
H       -0.2300442466   -0.6226877730   -0.2535104176
H        1.9754865574    0.2617500100    3.3003882845
H       -1.2142430301   -2.5442358462    0.9105506207
H        4.1134788259    3.1950438286    2.2002900582
H        4.2090740793    2.4607895257    0.5786638384
H        4.2984343299    4.2249534882    0.7618345435
H        2.9798112584   -1.3176463515    4.9266610652
H        2.1277095087   -1.8833283119    6.3741659510
H        1.7801359161   -0.2643462701    5.7355560160
H        2.0382643408    3.5516055395   -0.0298562919
H        1.9652360193    4.2952587770    1.5687734810
H        0.4570263167   -2.7078245001    4.8765880546
25   

C        0.0955199803   -0.8733407592    0.7526256766
C        1.2213561849   -0.3218557174    2.7609736049
C       -0.4058436631   -2.0047149290    1.3944886060
C        0.9256943321    0.0121473110    1.4410200236
C        0.6847155905   -1.4795327559    3.3314316609
C        1.5266111330    1.2178166999    0.7911165458
C        3.8727867707    3.2474339712    1.0147029555
C        1.9345977420   -1.2396876621    5.4999714522
C        2.3614191663    3.4023965109    1.1551878880
N       -0.1167484606   -2.3026562622    2.6681387266
N        0.9458875578   -1.8762951698    4.6214284688
O        1.6871290165    1.2719985918   -0.4245743951
O        1.7815435498    2.2016743472    1.6846133256
H       -0.1588964056   -0.6880036719   -0.2842068359
H        1.8697672323    0.3121302843    3.3481598157
H       -1.0516810452   -2.6745157575    0.8386021021
H        4.3180162723    3.0074983416    1.9848838179
H        4.1112033115    2.4497632368    0.3045033957
H        4.3096283474    4.1807878370    0.6478723525
H        2.9132440519   -1.1997952824    5.0100940359
H        2.0397140268   -1.8198675419    6.4222608876
H        1.6150981459   -0.2267414913    5.7657337876
H        1.9217062932    3.6598709710    0.1850733637
H        2.1473028660    4.2288862061    1.8400427654
H        0.4897532259   -2.7504548982    4.8581519749
25   

C        0.1816683579   -0.8990817636    0.7307473266
C        1.1930840094   -0.3049847980    2.7862085373
C       -0.2774088329   -2.0647610862    1.3414610116
C        0.9360440605    0.0249057155    1.4567222080
C        0.7030970248   -1.4987158540    3.3240687891
C        1.4674248711    1.2804174288    0.8405157902
C        3.9029096907    3.2216794217    0.8643774048
C        1.8450596657   -1.2105565616    5.5460365658
C        2.4419509491    3.3947503977    1.2685468588
N       -0.0207413294   -2.3603383430    2.6221206490
N        0.9322430116   -1.8930089697    4.6209644415
O        1.4478701742    1.4485473239   -0.3754759708
O        1.9096351660    2.1599118889    1.7689637425
H       -0.0500498719   -0.7158457464   -0.3118713248
H        1.7752713815    0.3548642329    3.4126668347
H       -0.8632260425   -2.7630337532    0.7549548794
H        4.4910556512    2.8747181367    1.7192084965
H        3.9912833534    2.4951875632    0.0508266886
H        4.3094373625    4.1776681710    0.5217742280
H        2.8398571959   -1.1110526432    5.0990590742
H        1.9432622589   -1.7929119731    6.4677122806
H        1.4578934055   -0.2197730626    5.8053092648
H        1.8600815043    3.7590937589    0.4144488420
H        2.3746195470    4.1521943112    2.0557499067
H        0.5173957673   -2.7941255059    4.8310474211
25   

C       -0.2165368631   -0.1450772909    1.1670934218
C        1.6037171909   -0.9779460576    2.4288019946
C       -1.0725475718   -0.6644646921    2.1364574353
C        1.1663382290   -0.2939569980    1.2958189243
C        0.6809498256   -1.4630921404    3.3603879019
C        2.1228154593    0.2448069853    0.2788622929
C        4.7248578924    1.9348519743   -0.0428069039
C        2.4251293449   -2.2690226657    4.9830525758
C        4.4007575266    0.4708929914   -0.3241092635
N       -0.6293731997   -1.3147776782    3.2197328088
N        1.0438399178   -2.1312458386    4.5057484913
O        1.7210505708    0.8448598085   -0.7141500014
O        3.4125524201   -0.0123886527    0.5971802610
H       -0.6330011370    0.3739371748    0.3117777475
H        2.6571964224   -1.1408907437    2.6026500460
H       -2.1411817428   -0.5353239740    2.0095618021
H        3.8371912756    2.5579844433   -0.1882673100
H        5.0786455010    2.0507675964    0.9859813616
H        5.5068893007    2.2799089991   -0.7254053391
H        2.9026852906   -1.2867395613    5.0628330660
H        3.0034683936   -2.9048097890    4.3047682067
H        2.4305719168   -2.7313499530    5.9752656491
H        5.3107929089   -0.1263530471   -0.2097910020
H        4.0639250193    0.3569695084   -1.3606506876
H        0.2438678357   -2.3944887470    5.0705395126
25   

C       -0.2421717949   -0.2228317261    1.1229146034
C        1.6037034535   -0.9329982818    2.4227966294
C       -1.0811901970   -0.7949437798    2.0775006148
C        1.1442244831   -0.2867055744    1.2766654845
C        0.6966913898   -1.4752811316    3.3380426548
C        2.0854181185    0.3288016418    0.2899209015
C        4.8125482845    1.8148257976    0.0519477890
C        2.4579656036   -2.1553814809    4.9992352496
C        4.3352745413    0.4503457522   -0.4359905395
N       -0.6175934041   -1.4141326189    3.1706722009
N        1.0800726883   -2.1109927847    4.4951000883
O        1.6819704268    1.0976006779   -0.5780982838
O        3.3595006478   -0.0920785284    0.4652459360
H       -0.6737028713    0.2729662335    0.2613532753
H        2.6627434150   -1.0184493929    2.6175405448
H       -2.1533737428   -0.7330872430    1.9313739804
H        3.9813307556    2.5262719709    0.0716019946
H        5.2332254385    1.7283594245    1.0582236091
H        5.5841245727    2.2009030943   -0.6204886082
H        2.8685626508   -1.1434972731    5.0817654569
H        3.0896046446   -2.7553304498    4.3360141813
H        2.4745917555   -2.6111733954    5.9943456242
H        5.1891752226   -0.2326917156   -0.4835071381
H        3.9309109724    0.5383824349   -1.4506528622
H        0.2882628733   -2.4232302583    5.0462715513
25   

C       -0.2561190878   -0.2931464093    1.0744746659
C        1.5968584167   -0.8835585500    2.4247445353
C       -1.0811890452   -0.9193200062    2.0074908697
C        1.1261735148   -0.2730978143    1.2641520783
C        0.7035000482   -1.4842755531    3.3161976859
C        2.0555403988    0.4204452873    0.3194364472
C        4.8871418980    1.6901470221    0.1093636146
C        2.4616428177   -2.0447366735    5.0241834936
C        4.2566681821    0.4667832685   -0.5493131915
N       -0.6071863488   -1.5092171565    3.1128809139
N        1.0970188286   -2.0908334252    4.4853665148
O        1.6666561908    1.3375133821   -0.3977476042
O        3.2908826578   -0.1320214487    0.3264492013
H       -0.6940454284    0.1815954483    0.2044525024
H        2.6551758166   -0.8921675958    2.6416570699
H       -2.1511922007   -0.9242357564    1.8348118725
H        4.1282987978    2.4547716702    0.3017469967
H        5.3577675155    1.4071303640    1.0556531408
H        5.6494334326    2.1157189802   -0.5496844600
H        2.8039139787   -1.0082402413    5.1127529287
H        3.1472503659   -2.6043478222    4.3795541493
H        2.4824219093   -2.4958377812    6.0213552441
H        5.0388645915   -0.2674609656   -0.7661336378
H        3.8018186537    0.7512031951   -1.5048130016
H        0.3133217121   -2.4530008190    5.0172539572
25   

C       -0.2456310688   -0.3675252322    1.0366092248
C        1.5955274571   -0.8465957482    2.4477772817
C       -1.0590749320   -1.0527724358    1.9382573187
C        1.1245164764   -0.2642390156    1.2737204557
C        0.7138407919   -1.5100345179    3.3054039518
C        2.0434978861    0.5074387316    0.3801788917
C        4.9575681342    1.5589440669    0.1324550183
C        2.4435640256   -1.9543867769    5.0746474455
C        4.1702808602    0.5173538818   -0.6570525113
N       -0.5848740766   -1.6192475049    3.0562737499
N        1.1065561587   -2.0954476928    4.4854824723
O        1.6855214577    1.5524120412   -0.1541773385
O        3.2170185075   -0.1383438967    0.1910952182
H       -0.6827002029    0.0895886151    0.1570024333
H        2.6455286722   -0.7833754268    2.6942787040
H       -2.1204351970   -1.1240956778    1.7304846473
H        4.2892144677    2.3397871137    0.5080866201
H        5.4652075391    1.0851086559    0.9779437622
H        5.7080582090    2.0250958454   -0.5125338792
H        2.7106172494   -0.8966529467    5.1706860853
H        3.1895523611   -2.4673149294    4.4588915904
H        2.4576365156   -2.4002642525    6.0742876817
H        4.8628798621   -0.2315960268   -1.0537344744
H        3.6777698218    0.9926414475   -1.5127812946
H        0.3302864806   -2.5093417304    4.9898369122
25   

C       -0.2244771716   -0.4434501862    1.0102486895
C        1.5843951871   -0.8080383827    2.4970110842
C       -1.0257647719   -1.1918068867    1.8721465451
C        1.1230993140   -0.2501357501    1.3081342066
C        0.7153904935   -1.5387419946    3.3116746717
C        2.0296696126    0.5950169907    0.4669097161
C        4.9972357069    1.4466744705    0.1061675813
C        2.3935377138   -1.8737729912    5.1528803626
C        4.0524486567    0.6184556246   -0.7594673922
N       -0.5609743261   -1.7350800435    3.0058366095
N        1.0978410367   -2.1066780432    4.5035908114
O        1.7232788862    1.7389300437    0.1471675987
O        3.1182500865   -0.0962882479    0.0616781194
H       -0.6542466247   -0.0078307950    0.1165539266
H        2.6166425607   -0.6731304423    2.7856261431
H       -2.0700744495   -1.3337697673    1.6191675895
H        4.4385496567    2.2015871281    0.6678226050
H        5.5288267885    0.7980852048    0.8089025586
H        5.7301506237    1.9561532687   -0.5261444483
H        2.5808054529   -0.8002183081    5.2613817365
H        3.2008843390   -2.3307140535    4.5713828119
H        2.3938224862   -2.3210220769    6.1520090821
H        4.6363434528   -0.1034525087   -1.3390456706
H        3.5351159080    1.2688968704   -1.4736270867
H        0.3309691131   -2.5762012314    4.9723651755
25   

C       -0.1700888079   -0.4960552018    0.9920972851
C        1.5738987443   -0.7582040912    2.5761807842
C       -0.9665327631   -1.3053742209    1.8021878206
C        1.1409319227   -0.2152010615    1.3706004875
C        0.7112033856   -1.5536241193    3.3349549371
C        2.0469643606    0.6835808577    0.5815031330
C        5.0428299642    1.3233491016    0.0369476998
C        2.3007811574   -1.7956063687    5.2667158072
C        3.9371798969    0.7408488294   -0.8381572369
N       -0.5306918800   -1.8292673583    2.9564271228
N        1.0647767514   -2.1113495987    4.5405283209
O        1.8445353141    1.8905530809    0.5035089786
O        3.0159077256   -0.0191290977   -0.0433951811
H       -0.5761406534   -0.0844981679    0.0764728122
H        2.5780577790   -0.5605046200    2.9217195322
H       -1.9827479435   -1.5148201735    1.4888681239
H        4.6234762883    2.0177596614    0.7713477293
H        5.5684197713    0.5203723592    0.5623703774
H        5.7608339732    1.8666355518   -0.5842463710
H        2.4077073132   -0.7126273067    5.3896211994
H        3.1704587881   -2.1924803818    4.7329667922
H        2.2723370483   -2.2489381495    6.2626932306
H        4.3834653634    0.0801773014   -1.5880608147
H        3.4247509282    1.5464547794   -1.3759187315
H        0.3052144525   -2.6344629749    4.9620754739
25   

C       -0.0789680096   -0.5504871938    0.9640114595
C        1.5730880981   -0.7082871741    2.6583183946
C       -0.8698436059   -1.4174695704    1.7182815087
C        1.1784032318   -0.1785902047    1.4342456214
C        0.7184043013   -1.5653780795    3.3564334838
C        2.0927780181    0.7569022311    0.6967483108
C        5.0820013809    1.1859195545   -0.0732006206
C        2.1960579137   -1.7222090988    5.3831167350
C        3.8352954366    0.8762039555   -0.8960358113
N       -0.4760779243   -1.9185813868    2.8975832214
N        1.0324645011   -2.1124487440    4.5777292121
O        2.0509527310    1.9700338827    0.8703312895
O        2.9135645128    0.0826175792   -0.1352794962
H       -0.4474039691   -0.1695329763    0.0198805899
H        2.5392778074   -0.4500100524    3.0665643339
H       -1.8454342946   -1.6957166673    1.3368009180
H        4.8208639346    1.7792010275    0.8083553251
H        5.5598905521    0.2560430015    0.2492886099
H        5.7933259478    1.7564194016   -0.6774706650
H        2.2218232081   -0.6358168261    5.5190846485
H        3.1224889961   -2.0544733056    4.9034615005
H        2.1354943984   -2.1867514884    6.3724661248
H        4.1259170480    0.3167954456   -1.7908143603
H        3.3695554248    1.8097659898   -1.2312755631
H        0.2841445772   -2.6881941011    4.9475319641
25   

C       -0.1933524556    0.4804560535    1.9999193566
C        1.5950536691   -0.5203387440    3.1958135702
C       -0.9832562798   -0.6122174921    2.3577762702
C        1.1296548116    0.5444761474    2.4313202580
C        0.7412839815   -1.5827607175    3.5042603475
C        2.0642035502    1.6652146493    2.0816458433
C        2.5850709410    3.8701170163   -0.0485184777
C        2.5116407279   -2.9338789167    4.6708118887
C        3.3538084880    2.6109056787    0.3402758862
N       -0.5223895503   -1.6291440564    3.0995700220
N        1.1316804604   -2.6741690711    4.2431480546
O        2.4410262853    2.4774305689    2.9196206521
O        2.4514899346    1.5905213845    0.7904744583
H       -0.6123646395    1.2717374968    1.3913118122
H        2.6156012091   -0.5181393087    3.5505644797
H       -2.0123336417   -0.6427960344    2.0189726852
H        1.8548765804    3.6384684139   -0.8297114000
H        2.0621062433    4.2824826571    0.8197526477
H        3.2783768819    4.6264764715   -0.4277411823
H        3.1847744585   -2.9420048905    3.8070352506
H        2.5713906634   -3.9123304780    5.1579857177
H        2.8411823579   -2.1735753187    5.3864620866
H        4.0956966746    2.8506770828    1.1102511000
H        3.8983905351    2.2388959534   -0.5332450891
H        0.3872997902   -3.3524927361    4.3607092231
25   

C       -0.1137008208    0.4126336542    1.8840080101
C        1.6169818908   -0.5496494558    3.1933458803
C       -0.9275671567   -0.6568537506    2.2579754470
C        1.1903809309    0.4867981722    2.3689902084
C        0.7414112868   -1.5904153193    3.5134736600
C        2.1632637171    1.5647232543    1.9994691637
C        2.5775667066    3.9772910417    0.0831416077
C        2.4545007655   -2.9065511939    4.7985620812
C        3.2597703577    2.6165712389    0.1870892986
N       -0.5063617689   -1.6432767287    3.0622258984
N        1.0932497074   -2.6534183209    4.3108540473
O        2.7642159051    2.2119671339    2.8509408311
O        2.3353237666    1.6271883076    0.6609239646
H       -0.4978392143    1.1762227626    1.2194467802
H        2.6241213842   -0.5411951119    3.5852917024
H       -1.9419357678   -0.6956481589    1.8781476990
H        1.7137957623    3.9145773229   -0.5855034179
H        2.2434205888    4.3140036456    1.0692674376
H        3.2791919201    4.7152514662   -0.3164738710
H        3.1585049657   -2.9536557917    3.9610161697
H        2.4879316960   -3.8655185040    5.3253659525
H        2.7647394711   -2.1210792758    5.4954235885
H        4.1343323304    2.6877523796    0.8434379596
H        3.6182200107    2.3181272158   -0.8030825909
H        0.3392198629   -3.3211468637    4.4271548611
25   

C       -0.0578088945    0.3258519332    1.7667862826
C        1.6311893514   -0.5846201496    3.1663688020
C       -0.8924147624   -0.7138136404    2.1770621736
C        1.2362900203    0.4113282767    2.2778993148
C        0.7359453420   -1.5974579204    3.5196247091
C        2.2366573867    1.4520709803    1.8829800443
C        2.5812348842    4.0595045829    0.2261295611
C        2.4029357999   -2.8614412203    4.9127837003
C        3.1450955582    2.6518150790    0.0575336547
N       -0.5015809878   -1.6606482131    3.0419929578
N        1.0564165065   -2.6207564329    4.3797417551
O        3.0111346817    1.9434991038    2.6986816252
O        2.2153311514    1.6766181279    0.5502564483
H       -0.4181999164    1.0570252500    1.0539852800
H        2.6290610549   -0.5681130198    3.5817687304
H       -1.8980702175   -0.7620899537    1.7757593168
H        1.6258334263    4.1473034042   -0.2997940146
H        2.4287012916    4.2862154307    1.2857636831
H        3.2799566942    4.7919011938   -0.1885156243
H        3.1259072605   -2.9599251734    4.0961101921
H        2.4131508961   -3.7913842038    5.4901454665
H        2.7056642761   -2.0432443454    5.5744144643
H        4.1100396078    2.5733081857    0.5708013171
H        3.3245030990    2.4619311377   -1.0053588830
H        0.2925284971   -3.2740217774    4.5123695381
25   

C       -0.0149704759    0.2361612743    1.6562660363
C        1.6473094957   -0.6079978665    3.1289485267
C       -0.8640929237   -0.7717643507    2.1129456619
C        1.2752272714    0.3374285869    2.1769973632
C        0.7378771049   -1.5915715372    3.5259054004
C        2.2928626729    1.3492863493    1.7544323251
C        2.6156508747    4.1253559829    0.3853714093
C        2.3735702172   -2.7887962760    5.0119457535
C        3.0325400664    2.7175068930   -0.0293510842
N       -0.4933285070   -1.6716871304    3.0347694074
N        1.0363954367   -2.5663688981    4.4480965547
O        3.2039086973    1.6958648915    2.5015419061
O        2.1031844690    1.7486963904    0.4769495955
H       -0.3635033075    0.9304887515    0.9017828814
H        2.6383605861   -0.5798417396    3.5600794197
H       -1.8652764296   -0.8333260112    1.7023830072
H        1.6070860577    4.3416729225    0.0205780921
H        2.6307285418    4.2234718769    1.4751480655
H        3.3082495894    4.8581192323   -0.0387950012
H        3.1066020273   -2.9371210705    4.2119276604
H        2.3679239385   -3.6861776553    5.6387674256
H        2.6746511883   -1.9384191664    5.6324846948
H        4.0496593184    2.5115886568    0.3225211388
H        3.0465621916    2.6546429537   -1.1219746943
H        0.2651600310   -3.2052919036    4.6055433280
25   

C        0.0069327369    0.1342362903    1.5478384910
C        1.6517749399   -0.6378501857    3.0786437968
C       -0.8527396140   -0.8409182793    2.0530253022
C        1.2967201392    0.2531015914    2.0689075051
C        0.7317712470   -1.5911247066    3.5224866956
C        2.3240808932    1.2414399867    1.6137058883
C        2.6682783707    4.1517800956    0.5572361291
C        2.3444477707   -2.7109441657    5.0920188112
C        2.9103475392    2.7871478301   -0.0806657752
N       -0.4956663207   -1.6907897805    3.0260000162
N        1.0144346360   -2.5128387581    4.5025490936
O        3.3496922898    1.4462576159    2.2583611568
O        1.9878642539    1.8184027493    0.4385311760
H       -0.3364306316    0.7893321128    0.7567492475
H        2.6377649526   -0.5959806981    3.5201111392
H       -1.8517627871   -0.9172888894    1.6396918435
H        1.6387140195    4.4744230119    0.3757013650
H        2.8439230139    4.1063238184    1.6363651789
H        3.3501384926    4.8900553020    0.1253009200
H        3.0842506586   -2.9105407616    4.3095686978
H        2.3261656630   -3.5700547244    5.7701152912
H        2.6456112422   -1.8278159825    5.6649594046
H        3.9473869336    2.4759930400    0.0881734879
H        2.7659478988    2.8663181916   -1.1627210398
H        0.2374391291   -3.1369399839    4.6884442710
25   

C        0.0014590107    0.0232645179    1.4471832144
C        1.6331767285   -0.6590573192    3.0337092134
C       -0.8620802634   -0.9224815956    1.9993916182
C        1.2886617472    0.1698137672    1.9688291751
C        0.7095249573   -1.5862100833    3.5229944996
C        2.3164778368    1.1413422201    1.4788156812
C        2.7401692476    4.1390512192    0.7286272140
C        2.3081453516   -2.6137549381    5.1680679686
C        2.7782808580    2.8526349418   -0.0906089348
N       -0.5131025911   -1.7156911882    3.0217626484
N        0.9826243480   -2.4480280008    4.5587192539
O        3.4312529927    1.2111794146    1.9909244605
O        1.8634430729    1.8860432065    0.4460764992
H       -0.3383614490    0.6339067887    0.6198369292
H        2.6136344643   -0.5916151543    3.4841692646
H       -1.8578933900   -1.0221658032    1.5832830676
H        1.7247893088    4.5463127140    0.7420808721
H        3.0625444742    3.9477172223    1.7566602901
H        3.4115472816    4.8809427413    0.2865714008
H        3.0536971560   -2.8562372725    4.4033797622
H        2.2842884110   -3.4341842572    5.8923184975
H        2.6055728433   -1.7004791031    5.6937444091
H        3.8002506986    2.4580151409   -0.1163936235
H        2.4892477876    3.0759367431   -1.1223814686
H        0.2046033994   -3.0621240073    4.7716625391
