33

C     -3.66893   -2.68126   -0.30272
C     -3.36508   -1.93950   -1.44134
C     -2.76692   -2.64024    0.76427
C     -2.18806   -1.18342   -1.48835
C     -1.35095   -1.19791   -0.35494
C     -1.17602   -3.23815   -5.13907
C     -0.90295   -3.41800   -3.65918
C     -0.07459    1.07141   -0.37036
C      0.25804    0.35627    0.92343
C     -0.94210   -2.03243   -4.26171
C     -0.04451   -0.44510   -0.31669
C      1.10901   -1.18342   -0.98139
C     -1.88883   -0.37964   -2.74309
N     -1.64058   -1.92119    0.74388
N     -2.07215   -1.18480   -3.96232
H     -4.57439   -3.27876   -0.23891
H     -4.01569   -1.95388   -2.31170
H     -2.95677   -3.20927    1.67393
H     -0.40132   -3.51358   -5.84865
H     -2.19418   -3.40194   -5.47857
H     -1.73607   -3.70143   -3.02665
H      0.06199   -3.81159   -3.35361
H     -1.04227    1.56128   -0.43938
H      0.72456    1.57751   -0.90679
H      1.28741    0.37646    1.27091
H     -0.48566    0.35161    1.71339
H      0.02765   -1.53553   -4.37158
H      2.02972   -0.59175   -0.93431
H      0.89680   -1.40092   -2.03316
H      1.28926   -2.13596   -0.47140
H     -2.59649    0.45744   -2.79498
H     -0.88717    0.06143   -2.68189
H     -2.23996   -0.56423   -4.75110
