34

C     -3.16534   -2.75591    0.50872
C     -3.38186   -1.92559   -0.58532
C     -1.88135   -2.78189    1.06316
C     -2.32999   -1.14187   -1.08512
C     -1.07063   -1.22992   -0.44916
C     -2.80226   -0.13119   -5.61765
C     -1.31486   -0.04340   -5.89326
C      0.16148    0.99430   -1.22218
C      0.78047    0.48235    0.05947
C     -1.87035    0.42182   -4.57514
C      0.17857   -0.50846   -0.89976
C      1.16314   -1.41111   -1.64022
C     -2.62324   -0.23315   -2.25273
N     -0.86821   -2.04822    0.59550
N     -1.60024   -0.39069   -3.36159
H     -3.96106   -3.36846    0.92036
H     -4.36551   -1.87798   -1.04726
H     -1.65814   -3.41787    1.91752
H     -3.47254    0.56851   -6.10514
H     -3.22466   -1.12023   -5.45891
H     -0.75147   -0.97241   -5.91849
H     -0.94602    0.72082   -6.56892
H     -0.75824    1.56223   -1.11250
H      0.83408    1.36613   -1.99298
H      1.86176    0.49837    0.14976
H      0.24444    0.67700    0.98201
H     -1.88679    1.47978   -4.33639
H      2.06208   -0.85829   -1.92821
H      0.73660   -1.85656   -2.54997
H      1.46106   -2.23697   -0.98897
H     -3.59470   -0.45771   -2.69472
H     -2.60813    0.82581   -1.98853
H     -1.53293   -1.38504   -3.60683
H     -0.68730   -0.13028   -2.95465
