34

C     -3.85664   -2.66651   -0.41802
C     -3.33393   -1.91202   -1.46390
C     -3.19697   -2.60484    0.81456
C     -2.18923   -1.13224   -1.25180
C     -1.55044   -1.19248    0.00698
C     -3.85717    1.67813   -0.53029
C     -4.20860    2.65562   -1.63138
C     -0.16598    0.97008    0.50002
C      0.05420   -0.00379    1.63565
C     -2.90391    1.90396   -1.66892
C     -0.21782   -0.53610    0.25521
C      0.94448   -1.20415   -0.47305
C     -1.69112   -0.24564   -2.35866
N     -2.07335   -1.90840    1.01447
N     -2.73006    0.83682   -2.69476
H     -4.73862   -3.28567   -0.54740
H     -3.81380   -1.94531   -2.44303
H     -3.57973   -3.15254    1.67371
H     -3.55886    2.06195    0.43936
H     -4.39880    0.73850   -0.48979
H     -4.99322    2.37095   -2.32804
H     -4.15382    3.72088   -1.43413
H     -1.09982    1.52336    0.51212
H      0.68646    1.52151    0.11071
H      1.06141   -0.11727    2.02368
H     -0.73138   -0.10852    2.37538
H     -1.96911    2.42696   -1.50308
H      1.88257   -0.68670   -0.25277
H      0.81932   -1.21317   -1.56229
H      1.04815   -2.24314   -0.14503
H     -0.78121    0.28772   -2.09338
H     -1.53108   -0.79171   -3.29295
H     -3.63376    0.37643   -2.85346
H     -2.47567    1.27886   -3.58704
