45   
Generated by ForceBalance from scan.xyz: Frame 1 of 13
C       -2.8448032429   -1.0817344369   -0.8985710739
C       -1.8471425427   -0.0765959842   -0.6045786317
C       -0.7123853589   -0.6307598066   -0.0680230469
C       -4.1673284127   -0.8758714656   -1.4611256169
C       -2.4301790878   -2.3628460613   -0.5828973715
C       -4.5094658547   -3.3446645779   -1.2935368326
C       -7.2922861034   -1.8417457363   -1.0625456904
C       -7.9017777202   -0.7340216601   -0.6047004323
C       -2.0688114648    1.3893398993   -0.8655257589
C       -8.6139601185   -0.7484001083    0.7275725271
C       -7.8665596361    0.6156293185   -1.2770898950
C       -0.5312856751   -5.5962790414   -3.1574127141
C        0.5662257242    0.0178028531    0.3695942034
C       -6.2911451490   -1.9302288140   -2.1857226981
C       -2.8020604682   -4.8231304202   -0.3639709992
C       -2.2536489374   -5.6213280950   -1.5367999652
N       -4.9139476499   -2.0627933570   -1.6481649050
N       -3.2290322066   -3.4711118613   -0.7482200347
O       -4.6415272509    0.2146608564   -1.7778105500
O       -5.2297817300   -4.3300418046   -1.4431656617
O        1.7074953518   -0.4114136700   -0.3875067866
O       -1.0673269739   -4.9912149268   -1.9904765944
S       -0.8179883390   -2.3928047980    0.0525797729
H       -7.3885494059   -2.7619638538   -0.4872742251
H       -2.9126936356    1.7619724253   -0.2781755852
H       -1.1849309053    1.9818549252   -0.6216343874
H       -2.3299153025    1.5569559679   -1.9135423815
H       -8.0884527070   -0.0900340160    1.4312467330
H       -9.6398383778   -0.3663883274    0.6461880996
H       -8.6525649248   -1.7510562605    1.1622318261
H       -8.8876403662    0.9399000516   -1.5168091081
H       -7.4450691079    1.3667807239   -0.5984659970
H       -7.2707523937    0.6316208993   -2.1885039043
H        0.3681470472   -5.0368360486   -3.4226343108
H       -1.2448833679   -5.5532471615   -3.9932961576
H       -0.2618194755   -6.6474894588   -2.9764250253
H        0.4517932089    1.1071728960    0.3236171042
H        0.8062948132   -0.2414062981    1.4047562593
H       -6.2907653163   -1.0458867433   -2.8174732141
H       -6.4699385259   -2.8125923129   -2.8013393429
H       -3.6689536205   -5.3403504013    0.0489724156
H       -2.0439278001   -4.7305812047    0.4171124088
H       -3.0053415320   -5.6696640218   -2.3366521543
H       -2.0462695194   -6.6502004908   -1.2000027023
H        1.4854600382   -0.3171094178   -1.3280598480
45   
Generated by ForceBalance from scan.xyz: Frame 2 of 13
C       -2.9309125171   -1.1401179955   -0.8819852538
C       -1.9559693326   -0.1232172505   -0.5541325640
C       -0.8220835711   -0.6675006239   -0.0058479932
C       -4.2468197677   -0.9470951178   -1.4639027166
C       -2.5006499752   -2.4192914509   -0.5792651482
C       -4.5494054358   -3.4249869630   -1.3443517526
C       -7.3296439464   -1.9005556582   -1.1261654184
C       -7.8734741803   -0.7660393769   -0.6482644156
C       -2.1969968670    1.3428986484   -0.7963891278
C       -8.2849444352   -0.6582940078    0.8009652283
C       -7.9197719237    0.5387385722   -1.4044339270
C       -0.4835765056   -5.5919845319   -3.1417689243
C        0.4372524303   -0.0047128398    0.4651569655
C       -6.3334065207   -2.0220733350   -2.2529780626
C       -2.8369630675   -4.8878580596   -0.3987796855
C       -2.2473019302   -5.6621130418   -1.5675731265
N       -4.9664109985   -2.1441777844   -1.6907456509
N       -3.2772684100   -3.5381546871   -0.7766419567
O       -4.7383947201    0.1400222398   -1.7642275607
O       -5.2504030062   -4.4195893535   -1.5200690765
O        1.5999459898   -0.4077477010   -0.2733687582
O       -1.0598866765   -5.0082017837   -1.9831670989
S       -0.8998554288   -2.4327762038    0.0849427724
H       -7.3540403343   -2.7844160455   -0.4877974330
H       -3.0534692436    1.6941609063   -0.2140359143
H       -1.3253670197    1.9450846856   -0.5328164995
H       -2.4478489481    1.5220834629   -1.8449612963
H       -7.5564442502   -0.0214645674    1.3189082821
H       -9.2674850297   -0.1863699427    0.9295483335
H       -8.2989394682   -1.6316808457    1.2997071740
H       -8.9477571647    0.9234050330   -1.4165963248
H       -7.2961905195    1.2930960441   -0.9110903487
H       -7.5764328954    0.4510124982   -2.4352827248
H        0.4134948331   -5.0156297725   -3.3770661756
H       -1.1754352050   -5.5510414406   -3.9958206283
H       -0.2022514229   -6.6407308895   -2.9646447991
H        0.3069803826    1.0832859944    0.4294135409
H        0.6603250897   -0.2725124705    1.5019428328
H       -6.3241281534   -1.1471659294   -2.8985897880
H       -6.5027299471   -2.9150790068   -2.8552535837
H       -3.7047621073   -5.4242982891   -0.0132544022
H       -2.0993001617   -4.7927186656    0.4013921900
H       -2.9779533308   -5.7112533599   -2.3867018208
H       -2.0324966085   -6.6921011437   -1.2389811234
H        1.3960045343   -0.3049233129   -1.2171267007
45   
Generated by ForceBalance from scan.xyz: Frame 3 of 13
C       -2.9869333428   -1.1746473451   -0.8750970786
C       -2.0259591346   -0.1533617653   -0.5206776977
C       -0.8953393318   -0.6954173566    0.0363910684
C       -4.2962993994   -0.9848316081   -1.4720000031
C       -2.5495461469   -2.4539370184   -0.5831860270
C       -4.5780847707   -3.4674187667   -1.3926450806
C       -7.3522931982   -1.9263558098   -1.1733119564
C       -7.8220156806   -0.7752251964   -0.6518178656
C       -2.2760680131    1.3136547875   -0.7479412060
C       -7.9168183328   -0.5734496941    0.8415170302
C       -7.9575618714    0.4975216160   -1.4524352076
C       -0.4649952701   -5.5716705752   -3.1558337769
C        0.3511490723   -0.0273807398    0.5336001365
C       -6.3611734221   -2.0661127679   -2.3058903756
C       -2.8670655393   -4.9272189540   -0.4405226807
C       -2.2519965028   -5.6798182247   -1.6103372957
N       -5.0015530028   -2.1848393218   -1.7278438109
N       -3.3137285783   -3.5763242665   -0.8068608686
O       -4.7942974811    0.1024028934   -1.7609959932
O       -5.2665068360   -4.4658783390   -1.5922549631
O        1.5285318550   -0.4154638743   -0.1892827446
O       -1.0649609283   -5.0087896941   -1.9988390039
S       -0.9583994763   -2.4624087400    0.1036587468
H       -7.3094954898   -2.7864316171   -0.5012929017
H       -3.1412581203    1.6515399642   -0.1704983793
H       -1.4120443443    1.9193438600   -0.4678680451
H       -2.5171922387    1.5035392328   -1.7969021555
H       -7.0409474176    0.0150030940    1.1425239411
H       -8.8060079346   -0.0094069996    1.1507157334
H       -7.8936840691   -1.5189951541    1.3917039393
H       -8.9705692973    0.9031546358   -1.3309456512
H       -7.2543942150    1.2597145958   -1.0986579830
H       -7.7822926545    0.3474901361   -2.5189399992
H        0.4295950275   -4.9832927556   -3.3698455342
H       -1.1441124193   -5.5266059306   -4.0198342096
H       -0.1756667823   -6.6197175672   -2.9877985684
H        0.2132832182    1.0599228299    0.5052866429
H        0.5592938178   -0.3027577936    1.5715051656
H       -6.3466694743   -1.1951249869   -2.9578067210
H       -6.5253435960   -2.9636561378   -2.9020833299
H       -3.7359458518   -5.4766001753   -0.0762856801
H       -2.1430959032   -4.8364148743    0.3725582984
H       -2.9695369135   -5.7249626955   -2.4412025432
H       -2.0320474748   -6.7119954842   -1.2922465986
H        1.3400849032   -0.3040019998   -1.1352860433
45   
Generated by ForceBalance from scan.xyz: Frame 4 of 13
C       -3.0449252258   -1.1923484640   -0.8601371336
C       -2.0984561826   -0.1638063752   -0.4876929576
C       -0.9718113086   -0.6971244710    0.0855177285
C       -4.3457925304   -1.0129568577   -1.4774603689
C       -2.6008304469   -2.4686472235   -0.5651943371
C       -4.6079562726   -3.4989190384   -1.4067859601
C       -7.3797965378   -1.9313141983   -1.2037020041
C       -7.7810164913   -0.7606775121   -0.6586433069
C       -2.3579194710    1.3016555032   -0.7144019148
C       -7.5627591681   -0.4541455488    0.8034938741
C       -8.0112549745    0.4656606097   -1.5116151988
C       -0.4539948339   -5.5452171386   -3.1302661351
C        0.2617017548   -0.0207810083    0.6037045583
C       -6.3914154749   -2.1092003013   -2.3367333142
C       -2.8943391314   -4.9455394216   -0.4390505950
C       -2.2565765827   -5.6843214363   -1.6055153820
N       -5.0384916900   -2.2181001971   -1.7436690872
N       -3.3509324837   -3.5973051291   -0.8035407010
O       -4.8479759047    0.0706962692   -1.7731148873
O       -5.2834237039   -4.5031604144   -1.6188496687
O        1.4525429692   -0.3956781262   -0.1037748430
O       -1.0738528111   -4.9962759968   -1.9770010650
S       -1.0207754955   -2.4647670755    0.1465942424
H       -7.2736110502   -2.7511141537   -0.4859973104
H       -3.2341155761    1.6306419654   -0.1484162464
H       -1.5033874490    1.9139085402   -0.4199488187
H       -2.5854993108    1.4926893898   -1.7661370536
H       -6.6042082889    0.0763496311    0.8584441482
H       -8.3267259015    0.2013528381    1.2401142343
H       -7.4845926765   -1.3583031602    1.4155853269
H       -8.9963507108    0.8943189992   -1.2832977816
H       -7.2612670547    1.2377199306   -1.3070442343
H       -7.9890472838    0.2390243931   -2.5797940313
H        0.4351231650   -4.9441513903   -3.3314111230
H       -1.1241992189   -5.5043599857   -4.0013903273
H       -0.1528897712   -6.5902723703   -2.9644453841
H        0.1149810655    1.0654180314    0.5783256421
H        0.4571883906   -0.2991253639    1.6432626675
H       -6.3711089637   -1.2540741405   -3.0102597295
H       -6.5540984444   -3.0209833586   -2.9104522641
H       -3.7615366187   -5.5063495537   -0.0885652906
H       -2.1814976696   -4.8514213339    0.3834077551
H       -2.9639543343   -5.7342269496   -2.4447641267
H       -2.0272884326   -6.7152472451   -1.2900562714
H        1.2776615597   -0.2796063263   -1.0518272632
45   
Generated by ForceBalance from scan.xyz: Frame 5 of 13
C       -3.0811782848   -1.2079252917   -0.8650168123
C       -2.1436010027   -0.1767169552   -0.4774545362
C       -1.0255651929   -0.7070222399    0.1148025106
C       -4.3722775535   -1.0316533214   -1.5024235901
C       -2.6390136314   -2.4831296391   -0.5619442907
C       -4.6304099407   -3.5183958477   -1.4334673925
C       -7.4066680982   -1.9621556499   -1.2489227611
C       -7.7223388319   -0.8104249921   -0.6036181701
C       -2.4031934897    1.2880285657   -0.7086199788
C       -7.2294656337   -0.5097572625    0.7919206408
C       -8.0356601044    0.4352654660   -1.4050416127
C       -0.4506028993   -5.5362839483   -3.1139820358
C        0.1969029569   -0.0279584529    0.6553962134
C       -6.4077186245   -2.1315629033   -2.3786375390
C       -2.9241350404   -4.9616873212   -0.4477164769
C       -2.2688225851   -5.6922755169   -1.6096438886
N       -5.0617590682   -2.2377006433   -1.7723008014
N       -3.3819734826   -3.6137153894   -0.8121176335
O       -4.8714484766    0.0509856801   -1.8079341783
O       -5.2982856664   -4.5243411524   -1.6586443929
O        1.4026719317   -0.4102161742   -0.0218410451
O       -1.0859476330   -4.9960289876   -1.9649680246
S       -1.0712052063   -2.4748748272    0.1761946628
H       -7.2560526134   -2.7974635182   -0.5529218758
H       -3.2871662583    1.6159357132   -0.1540755457
H       -1.5539410295    1.9022862575   -0.4033329149
H       -2.6175855295    1.4779373585   -1.7632715760
H       -6.2580898854   -0.0222032562    0.6487070351
H       -7.8683281457    0.1806805121    1.3566087566
H       -7.0716905640   -1.4128869952    1.3907750379
H       -9.0079828520    0.8392651016   -1.0907106917
H       -7.2874872141    1.2193589016   -1.2445753551
H       -8.0994700451    0.2262840229   -2.4760049534
H        0.4373204666   -4.9294658977   -3.3027230249
H       -1.1115758551   -5.4950168737   -3.9920960900
H       -0.1455812600   -6.5804151734   -2.9496520558
H        0.0523005473    1.0581843141    0.6182203014
H        0.3683755564   -0.2984234477    1.7012705634
H       -6.3828700443   -1.2748371780   -3.0509829954
H       -6.5645213580   -3.0422095741   -2.9548769220
H       -3.7931852980   -5.5277123392   -0.1104974705
H       -2.2220507309   -4.8680962356    0.3839761441
H       -2.9662715263   -5.7429014572   -2.4570967395
H       -2.0373435470   -6.7230990888   -1.2955220983
H        1.2508856162   -0.2984350684   -0.9743849345
45   
Generated by ForceBalance from scan.xyz: Frame 6 of 13
C       -3.1162347053   -1.1848836498   -0.9274429076
C       -2.1859796665   -0.1519201284   -0.5268367729
C       -1.0891068197   -0.6776027452    0.1074635189
C       -4.3877187108   -1.0127523519   -1.6037365482
C       -2.6894909258   -2.4571381529   -0.5915765729
C       -4.6597960179   -3.4978846508   -1.5044954239
C       -7.4436038697   -1.9519709347   -1.3959383502
C       -7.6799501561   -0.8742902265   -0.5961909169
C       -2.4326128151    1.3102882692   -0.7864326731
C       -6.9845601792   -0.6726639680    0.7301888047
C       -8.0456714189    0.4409479326   -1.2595819152
C       -0.4421390413   -5.5314894512   -3.0572376029
C        0.1189606618    0.0035660603    0.6772630347
C       -6.4111635456   -2.1132073830   -2.5014135988
C       -2.9828824135   -4.9337515964   -0.4601778226
C       -2.2980834485   -5.6745687306   -1.5984335808
N       -5.0813401571   -2.2191418926   -1.8636549818
N       -3.4293438519   -3.5883523062   -0.8478280374
O       -4.8715973818    0.0665555385   -1.9435421082
O       -5.3216416712   -4.5051320644   -1.7402796080
O        1.3446830862   -0.4022392436    0.0518920174
O       -1.1061362701   -4.9816967101   -1.9290457065
S       -1.1451188240   -2.4441549275    0.1943068251
H       -7.2892492360   -2.8423343199   -0.7651188047
H       -3.3299797680    1.6500025304   -0.2611594701
H       -1.5895334375    1.9255521223   -0.4665209933
H       -2.6172156507    1.4856963263   -1.8491367833
H       -6.0371034853   -0.1892599847    0.4683358428
H       -7.5165427222   -0.0109355062    1.4247734695
H       -6.7576346033   -1.6132204478    1.2437907708
H       -9.0103464952    0.7935227824   -0.8678227416
H       -7.3068263792    1.2254750077   -1.0613348911
H       -8.1576518445    0.3254109349   -2.3413994329
H        0.4506533087   -4.9265822535   -3.2282583964
H       -1.0806201383   -5.4970056743   -3.9521056656
H       -0.1420413940   -6.5743649393   -2.8767924529
H       -0.0152091291    1.0897292695    0.6123754356
H        0.2507653278   -0.2461389132    1.7340096649
H       -6.3645479786   -1.2613289772   -3.1798425903
H       -6.5629078339   -3.0261723412   -3.0737220274
H       -3.8611870508   -5.4959714243   -0.1411269285
H       -2.3028311663   -4.8338153134    0.3888909814
H       -2.9734316192   -5.7323403013   -2.4631296643
H       -2.0753896323   -6.7027000774   -1.2695097150
H        1.2292560832   -0.3066255959   -0.9074919504
45   
Generated by ForceBalance from scan.xyz: Frame 7 of 13
C       -2.7339029998   -0.9936729810   -0.4836147862
C       -1.6590435988   -0.0334167444   -0.3655338759
C       -0.4894056865   -0.6296957005    0.0332352631
C       -4.1099588630   -0.7386771318   -0.8687517066
C       -2.3423576243   -2.2846391459   -0.1779405553
C       -4.5419460034   -3.1819450740   -0.5670271999
C       -7.2667905037   -1.3441393991   -0.1030883946
C       -8.4009235497   -0.5940718594   -0.1939306861
C       -1.8453115691    1.4331655605   -0.6492599933
C       -9.7661127209   -1.1833961121   -0.4744361635
C       -8.2558330431    0.7983247567   -0.7930204664
C       -0.9535189880   -5.6964059921   -2.8416266092
C        0.8663246310   -0.0353997505    0.2695918738
C       -6.3512485593   -1.6852881003   -1.2584106772
C       -2.7968614683   -4.7136431221    0.1897840975
C       -2.4454594600   -5.5790912719   -1.0103915716
N       -4.9266502104   -1.8922992111   -0.9138076832
N       -3.2075330680   -3.3556674960   -0.1918427230
O       -4.5807994964    0.3622030453   -1.1537712543
O       -5.3204105145   -4.1345933965   -0.5837084200
O        1.8727439037   -0.5496041318   -0.6151926046
O       -1.3004980714   -5.0273315217   -1.6387351455
S       -0.6617419135   -2.3789664067    0.2349973138
H       -7.4649127691   -2.2894886774    0.4244056850
H       -2.5798617395    1.8673985545    0.0347292568
H       -0.9088543907    1.9860342487   -0.5530811634
H       -2.2424605004    1.5813505566   -1.6567325770
H      -10.6022196571   -0.5293280430   -0.1993339326
H       -9.7921729524   -1.3202113223   -1.5620854340
H       -9.9193007997   -2.1643943726   -0.0112126468
H       -8.7992943296    0.9129085268   -1.7410438242
H       -8.6891884341    1.5323842636   -0.0989783774
H       -7.2061087717    1.0670373130   -0.9382951054
H       -0.0714930245   -5.1937003942   -3.2436697822
H       -1.7688362849   -5.6424389077   -3.5779913698
H       -0.7131127973   -6.7540879162   -2.6574232547
H        0.7989648863    1.0563335070    0.1953055832
H        1.2316520802   -0.2720698986    1.2730193968
H       -6.3747468704   -0.9217369348   -2.0363804237
H       -6.7175497472   -2.6320472172   -1.6533025099
H       -3.6248514590   -5.1705529804    0.7330389520
H       -1.9389429304   -4.6328684864    0.8612058066
H       -3.2969600492   -5.6150204269   -1.7038322510
H       -2.2446201353   -6.6054630628   -0.6622450867
H        1.5306421018   -0.4740438582   -1.5207814546
45   
Generated by ForceBalance from scan.xyz: Frame 8 of 13
C       -2.7380033119   -1.0120957174   -0.5209642682
C       -1.6700417754   -0.0464803676   -0.3852617267
C       -0.5035469153   -0.6389090266    0.0280978805
C       -4.1096221212   -0.7620397302   -0.9252422562
C       -2.3441808878   -2.3020841642   -0.2137175190
C       -4.5348991808   -3.2057350251   -0.6341302408
C       -7.2821257198   -1.4247477250   -0.2036384064
C       -8.3521866338   -0.5912627550   -0.2664945321
C       -1.8591483464    1.4202229706   -0.6667542462
C       -9.7753604488   -1.0971456640   -0.3293707029
C       -8.1801248169    0.7721570811   -0.9119762069
C       -0.9168809262   -5.6981955946   -2.8787661931
C        0.8447694737   -0.0368043556    0.2857904633
C       -6.3444621395   -1.7197311094   -1.3495399044
C       -2.7937339105   -4.7343934593    0.1380249670
C       -2.4271634827   -5.5939908641   -1.0618622424
N       -4.9215455944   -1.9176899649   -0.9832031665
N       -3.2044881730   -3.3763588247   -0.2429964485
O       -4.5790666269    0.3384915659   -1.2155123087
O       -5.3095351387   -4.1612324789   -0.6617976464
O        1.8673556912   -0.5426826448   -0.5851017642
O       -1.2775198143   -5.0360460508   -1.6760593381
S       -0.6691396862   -2.3898183347    0.2224977667
H       -7.5011398667   -2.3588632264    0.3281975386
H       -2.6052255370    1.8488178959    0.0082788948
H       -0.9266815489    1.9770129451   -0.5554559722
H       -2.2427648883    1.5700060283   -1.6792017975
H      -10.5203735068   -0.3837227901    0.0441424848
H       -9.9808057830   -1.2617764017   -1.3939458876
H       -9.9118233964   -2.0523010418    0.1884917044
H       -8.7415178692    0.8609610675   -1.8524907071
H       -8.5830047880    1.5424991327   -0.2400623632
H       -7.1290042908    1.0080729720   -1.0929461259
H       -0.0322736903   -5.1911839247   -3.2695842043
H       -1.7250148042   -5.6426946007   -3.6228939592
H       -0.6754568954   -6.7561588874   -2.6975027397
H        0.7717629130    1.0546987998    0.2130694995
H        1.1965807105   -0.2736892014    1.2939820557
H       -6.3632121877   -0.9336942871   -2.1032275863
H       -6.6863478890   -2.6589908093   -1.7832128969
H       -3.6259366158   -5.1959092901    0.6708764028
H       -1.9430500900   -4.6537168272    0.8185686663
H       -3.2712860640   -5.6297755063   -1.7642583747
H       -2.2266434634   -6.6211396087   -0.7158389161
H        1.5381089851   -0.4675804585   -1.4954815763
45   
Generated by ForceBalance from scan.xyz: Frame 9 of 13
C       -2.7720826071   -1.0005282310   -0.5127122768
C       -1.7124769871   -0.0279200717   -0.3608974651
C       -0.5510694388   -0.6099384115    0.0806442094
C       -4.1367343778   -0.7617304368   -0.9464742080
C       -2.3768531066   -2.2859046409   -0.1886530663
C       -4.5529217853   -3.2058009923   -0.6476600637
C       -7.3268703128   -1.5100313932   -0.2841902109
C       -8.3277996070   -0.6008733767   -0.2881335321
C       -1.9041353713    1.4357438537   -0.6559552042
C       -9.7770317908   -0.9995108564   -0.1330395164
C       -8.1419946295    0.7560318355   -0.9360883738
C       -0.8844047940   -5.6865748465   -2.8099973189
C        0.7883028111    0.0008136943    0.3636093914
C       -6.3571727435   -1.7427652317   -1.4155981647
C       -2.8184155460   -4.7186056223    0.1688922848
C       -2.4254915321   -5.5830291531   -1.0191241722
N       -4.9398157055   -1.9227058856   -1.0140423902
N       -3.2298380532   -3.3654185982   -0.2280254121
O       -4.6052510034    0.3352252579   -1.2525649859
O       -5.3220610440   -4.1653914238   -0.6840426123
O        1.8323514211   -0.5058401038   -0.4809294087
O       -1.2692284204   -5.0208227557   -1.6167991925
S       -0.7107747293   -2.3604881491    0.2829347015
H       -7.5468550549   -2.4487254610    0.2329291260
H       -2.6673584259    1.8640322374   -0.0002012460
H       -0.9776585716    1.9988878416   -0.5279404933
H       -2.2663692729    1.5767121297   -1.6775017582
H      -10.3930193358   -0.2405502114    0.3655941756
H      -10.1736293832   -1.1250420762   -1.1478739841
H       -9.8983438453   -1.9515961927    0.3933332424
H       -8.7415319929    0.8550155258   -1.8515552809
H       -8.4966494941    1.5367530748   -0.2500389424
H       -7.0952574722    0.9647904263   -1.1658253189
H        0.0032098395   -5.1756593056   -3.1887370344
H       -1.6804663401   -5.6401076872   -3.5676311214
H       -0.6390923653   -6.7420006774   -2.6194101636
H        0.7115486718    1.0913802329    0.2815919201
H        1.1190248098   -0.2272430609    1.3809517559
H       -6.3709530629   -0.9292346850   -2.1382828585
H       -6.6621161651   -2.6708409609   -1.8991057450
H       -3.6573679092   -5.1817859052    0.6896091257
H       -1.9805092440   -4.6288297599    0.8639874202
H       -3.2571246630   -5.6287544645   -1.7356586227
H       -2.2240609315   -6.6066750052   -0.6633888022
H        1.5228019741   -0.4390228449   -1.3988360440
45   
Generated by ForceBalance from scan.xyz: Frame 10 of 13
C       -2.7359777176   -1.0562152253   -0.6457176243
C       -1.6810801166   -0.0840415469   -0.4616588409
C       -0.5300995143   -0.6690665381    0.0025531785
C       -4.0892064779   -0.8140333654   -1.1122206625
C       -2.3478157623   -2.3440373856   -0.3226220239
C       -4.5123937434   -3.2592589926   -0.8357786136
C       -7.2849762164   -1.6028919288   -0.5073886239
C       -8.2142093244   -0.6281207268   -0.4328694689
C       -1.8665998042    1.3819703316   -0.7490044602
C       -9.6361699694   -0.9280679397   -0.0197569185
C       -8.0246963878    0.7205457339   -1.0909898908
C       -0.8085729731   -5.7199094785   -2.9520648490
C        0.8016973552   -0.0594772246    0.3213251699
C       -6.3013169311   -1.7928653341   -1.6318915110
C       -2.7946614837   -4.7809062655    0.0015998449
C       -2.3806563440   -5.6340332803   -1.1874554500
N       -4.8914128749   -1.9735776709   -1.2012222648
N       -3.1982707242   -3.4239057538   -0.3904822589
O       -4.5478996680    0.2846803611   -1.4273265633
O       -5.2812070185   -4.2178848403   -0.8950902852
O        1.8645722837   -0.5543144739   -0.5065441315
O       -1.2146817178   -5.0654803097   -1.7596456182
S       -0.6931161669   -2.4213832612    0.1869192073
H       -7.5121480289   -2.5334954253    0.0165537890
H       -2.6454827831    1.8044383610   -0.1080164453
H       -0.9438271112    1.9444579654   -0.5941380700
H       -2.2045879481    1.5312653717   -1.7776090871
H      -10.0845209824   -0.1382539366    0.5963407216
H      -10.2356695232   -1.0001841865   -0.9357160343
H       -9.7228721230   -1.8795348216    0.5135607804
H       -8.6842561976    0.8377444532   -1.9617328428
H       -8.3032139377    1.5129954247   -0.3841959113
H       -6.9917222300    0.8946182064   -1.3966714138
H        0.0849700091   -5.2048021678   -3.3106473182
H       -1.5914200699   -5.6670973388   -3.7229349504
H       -0.5655854783   -6.7768469087   -2.7669704556
H        0.7245633039    1.0318485083    0.2504946273
H        1.1109442400   -0.2988812546    1.3428001527
H       -6.3046760726   -0.9547445037   -2.3248765584
H       -6.5832405023   -2.7048143571   -2.1590167436
H       -3.6428854513   -5.2486675650    0.5028578580
H       -1.9692668574   -4.6980672204    0.7122929910
H       -3.1997611248   -5.6733523009   -1.9186422930
H       -2.1847645650   -6.6609459801   -0.8380921754
H        1.5742559652   -0.4779312982   -1.4299717392
45   
Generated by ForceBalance from scan.xyz: Frame 11 of 13
C       -2.7424331320   -1.0944016378   -0.7289819848
C       -1.6983561634   -0.1164152358   -0.5164504572
C       -0.5549820254   -0.6959887090   -0.0270742934
C       -4.0854052354   -0.8572094143   -1.2266089228
C       -2.3538253132   -2.3808602465   -0.4014961098
C       -4.5011143198   -3.3056445741   -0.9684403982
C       -7.2827707336   -1.7144298619   -0.6877526828
C       -8.1476402178   -0.6959022256   -0.5233769872
C       -1.8863938657    1.3493876761   -0.8032072877
C       -9.4861390029   -0.9135484976    0.1424298470
C       -7.9801019488    0.6544238930   -1.1807545716
C       -0.7433220359   -5.7285550136   -3.0211951564
C        0.7654463230   -0.0796361325    0.3243186448
C       -6.2804994148   -1.8518735650   -1.8024154655
C       -2.7939208793   -4.8218370640   -0.1015762290
C       -2.3502824997   -5.6647273349   -1.2873022968
N       -4.8798329687   -2.0207209756   -1.3370483479
N       -3.1967795193   -3.4646344490   -0.4933454146
O       -4.5394023607    0.2410009962   -1.5502777171
O       -5.2631179495   -4.2679175308   -1.0496840857
O        1.8490311595   -0.5609591589   -0.4844741697
O       -1.1770795749   -5.0848561520   -1.8326692289
S       -0.7113264228   -2.4499994970    0.1470241776
H       -7.4899117838   -2.6467804204   -0.1620560535
H       -2.6842759976    1.7642535274   -0.1808924951
H       -0.9717511253    1.9174695469   -0.6228167699
H       -2.1989584415    1.5002591080   -1.8396160423
H       -9.7273826320   -0.1294559880    0.8715578793
H      -10.2675035521   -0.8817441396   -0.6274813170
H       -9.5450679366   -1.8845144777    0.6425197441
H       -8.7053287083    0.7902606443   -1.9944880418
H       -8.1837886638    1.4463337280   -0.4489942700
H       -6.9729016055    0.8116505660   -1.5687448196
H        0.1536287616   -5.2051877473   -3.3586907741
H       -1.5112372235   -5.6756136065   -3.8069257651
H       -0.4969609212   -6.7851050545   -2.8383828230
H        0.6822340123    1.0116204582    0.2598327916
H        1.0546894016   -0.3244697671    1.3503445128
H       -6.2813697099   -0.9896586232   -2.4642731787
H       -6.5270602991   -2.7480375292   -2.3734062275
H       -3.6500262716   -5.2975971384    0.3783345987
H       -1.9844276621   -4.7391759282    0.6271945295
H       -3.1543743491   -5.7050220679   -2.0349093275
H       -2.1544287790   -6.6924241374   -0.9402242413
H        1.5774009594   -0.4804764914   -1.4132212022
45   
Generated by ForceBalance from scan.xyz: Frame 12 of 13
C       -2.7953249923   -1.0731659553   -0.7471408364
C       -1.7570597101   -0.0930908493   -0.5155780560
C       -0.6294443308   -0.6670077379    0.0150064067
C       -4.1227853356   -0.8420561239   -1.2872888927
C       -2.4175830189   -2.3554933638   -0.3919527889
C       -4.5474730190   -3.2871523515   -1.0110986527
C       -7.3275325407   -1.7459217937   -0.8162425047
C       -8.1083718024   -0.6834408693   -0.5526333103
C       -1.9345743202    1.3692882133   -0.8256582622
C       -9.3150390816   -0.8215869331    0.3455696523
C       -7.9450863384    0.6776319504   -1.1863444535
C       -0.7305976733   -5.7267160971   -2.9294009230
C        0.6801550876   -0.0463160476    0.3978379409
C       -6.3021051296   -1.8484510757   -1.9141510673
C       -2.8657481743   -4.7931257932   -0.0795118129
C       -2.3875889860   -5.6470316930   -1.2438035611
N       -4.9163022124   -2.0061993427   -1.4033294923
N       -3.2579575135   -3.4400543838   -0.4954853164
O       -4.5635640533    0.2524398608   -1.6401673630
O       -5.3062489707   -4.2504947961   -1.1062890276
O        1.7871382525   -0.5380133986   -0.3720776945
O       -1.1997608155   -5.0711185001   -1.7609936966
S       -0.7923156714   -2.4185872910    0.2062469792
H       -7.5255584959   -2.6835300750   -0.2988074926
H       -2.7512523324    1.7920642712   -0.2338214983
H       -1.0254718249    1.9388648450   -0.6232415032
H       -2.2141646971    1.5080301252   -1.8731071467
H       -9.2992175413   -0.0872985572    1.1612859804
H      -10.2292776154   -0.6302656823   -0.2310049961
H       -9.3910646923   -1.8217492700    0.7810214097
H       -8.7552727564    0.8722611449   -1.9017262824
H       -8.0174166427    1.4550554381   -0.4157232822
H       -6.9860459124    0.8012018762   -1.6898370646
H        0.1752894950   -5.2056415272   -3.2459159798
H       -1.4751510140   -5.6831944110   -3.7378470207
H       -0.4885006827   -6.7809022567   -2.7281990433
H        0.5993705140    1.0440460594    0.3169240365
H        0.9384969812   -0.2780165569    1.4350961781
H       -6.2935500574   -0.9705590112   -2.5543468301
H       -6.5127084473   -2.7324710733   -2.5180906066
H       -3.7349440245   -5.2650468790    0.3802190139
H       -2.0775534582   -4.7026875865    0.6713637695
H       -3.1698652808   -5.6957195331   -2.0136933939
H       -2.2008009882   -6.6709754824   -0.8809972010
H        1.5435147398   -0.4690319752   -1.3094778188
45   
Generated by ForceBalance from scan.xyz: Frame 13 of 13
C       -2.8203193978   -1.1148716805   -0.8243746693
C       -1.7993596429   -0.1252590005   -0.5586850578
C       -0.6778046738   -0.6904942324   -0.0062712713
C       -4.1370696697   -0.8941893561   -1.3944235016
C       -2.4358197495   -2.3959779338   -0.4722194146
C       -4.5384627857   -3.3467949493   -1.1514510089
C       -7.3203996105   -1.8454659142   -0.9846058824
C       -8.0217109775   -0.7610218053   -0.6115480515
C       -1.9867812138    1.3377346693   -0.8598204953
C       -9.0249901880   -0.8520178598    0.5144042567
C       -7.9015685471    0.6066103009   -1.2389231680
C       -0.6381287710   -5.7298518465   -2.9879944273
C        0.6154672793   -0.0593392523    0.4132531263
C       -6.2898281333   -1.9207724633   -2.0803237316
C       -2.8621201633   -4.8415565644   -0.1917123285
C       -2.3429212931   -5.6801180246   -1.3495715333
N       -4.9145763492   -2.0663653335   -1.5394526342
N       -3.2598952063   -3.4896528845   -0.6063651385
O       -4.5811607814    0.1980437990   -1.7490935589
O       -5.2824350214   -4.3183039390   -1.2743007989
O        1.7451921909   -0.5290496483   -0.3371549654
O       -1.1479029936   -5.0870848021   -1.8295026708
S       -0.8246406178   -2.4455328674    0.1642562974
H       -7.4856307101   -2.7829425468   -0.4559798403
H       -2.8232865938    1.7451625464   -0.2851667806
H       -1.0901201249    1.9162349505   -0.6292507314
H       -2.2414856929    1.4829304927   -1.9127315394
H       -8.7420523168   -0.1839419199    1.3380688446
H      -10.0193960263   -0.5307210909    0.1782760535
H       -9.1085915232   -1.8683049130    0.9090079949
H       -8.8127420559    0.8488904608   -1.8016743742
H       -7.8052986140    1.3693263457   -0.4565526056
H       -7.0391439083    0.7040909592   -1.8976110369
H        0.2703861632   -5.1965695443   -3.2752691369
H       -1.3597608100   -5.6896294732   -3.8171170368
H       -0.3898185334   -6.7824894120   -2.7862441615
H        0.5236737021    1.0308872213    0.3431931554
H        0.8532160594   -0.3002935327    1.4533285959
H       -6.2803373914   -1.0316984867   -2.7047262756
H       -6.4721044051   -2.7961996954   -2.7056265962
H       -3.7373614426   -5.3278041332    0.2408182396
H       -2.0952606308   -4.7481726886    0.5806272657
H       -3.1033837741   -5.7310325886   -2.1408946169
H       -2.1546714755   -6.7049337230   -0.9899640271
H        1.5216057801   -0.4522977421   -1.2789335265
