17   
Generated by ForceBalance from scan.xyz: Frame 1 of 24
C        5.2008406271    0.2236834566    1.3471107015
C        5.5634218329    1.3701903701    0.6336506318
C        4.1929921055   -0.6051171381    0.8584696493
C        4.8972660541    1.6208057133   -0.5676693403
C        3.5589778180   -0.2357155287   -0.3437621265
C        1.6912178144   -1.9772733637   -0.4780794096
N        3.9165235659    0.8490616813   -1.0498353616
N        1.6265858184   -2.1377403515    0.9009487138
N        2.5381244541   -0.9789114722   -0.9494860030
O        1.0541353110   -2.6768905335   -1.2576395182
H        5.7109068654   -0.0382056216    2.2706539926
H        6.3455251926    2.0370773180    0.9825070024
H        3.9357110742   -1.5284847477    1.3626102376
H        5.1605218165    2.4843029409   -1.1766580114
H        0.8476607645   -2.7318786332    1.1627291678
H        1.7123056025   -1.2997683733    1.4663899596
H        2.3998683267   -0.7704214546   -1.9325274160
17   
Generated by ForceBalance from scan.xyz: Frame 2 of 24
C        5.2115112220    0.2293025014    1.3505124047
C        5.6192851967    1.3450639031    0.6132556210
C        4.1562412814   -0.5562445041    0.8913164383
C        4.9463216563    1.6099520602   -0.5810135967
C        3.5277242698   -0.1800650052   -0.3113823415
C        1.7359744726   -1.9913738352   -0.4748225421
N        3.9249681619    0.8767176884   -1.0381003906
N        1.6317931688   -2.1727031447    0.8982974577
N        2.4545394017   -0.8717969509   -0.8929448694
O        1.2345994638   -2.7595351854   -1.2871952019
H        5.7196738995   -0.0408597512    2.2727601594
H        6.4376154952    1.9787113969    0.9402642471
H        3.8559498601   -1.4515456293    1.4208061713
H        5.2389341478    2.4521344034   -1.2062898014
H        0.9354564042   -2.8725977674    1.1294539518
H        1.5812860605   -1.3346099850    1.4675965679
H        2.3541071159   -0.6925063274   -1.8867987125
17   
Generated by ForceBalance from scan.xyz: Frame 3 of 24
C        5.2005092564    0.2483974724    1.3448362353
C        5.6404934466    1.3290521078    0.5742939484
C        4.1014656727   -0.4986488741    0.9260781124
C        4.9516858759    1.5997881893   -0.6092748923
C        3.4688627320   -0.1261140342   -0.2749698150
C        1.7649518929   -2.0018424379   -0.4621686606
N        3.8924147751    0.8991296785   -1.0305489025
N        1.6154029431   -2.2153268810    0.9003379219
N        2.3445757173   -0.7762822434   -0.8165737272
O        1.4219104420   -2.8160498073   -1.3093661624
H        5.7135559202   -0.0212179233    2.2645681502
H        6.4920963523    1.9334356530    0.8702699683
H        3.7658399389   -1.3607685800    1.4882226490
H        5.2632705694    2.4179688206   -1.2568635542
H        1.0228266543   -3.0134358446    1.1003134127
H        1.4247027291   -1.3982665596    1.4700492556
H        2.2606233156   -0.5993543741   -1.8133261850
17   
Generated by ForceBalance from scan.xyz: Frame 4 of 24
C        5.2097472263    0.2451763350    1.3316307238
C        5.6783070698    1.2953620170    0.5353373876
C        4.0722937852   -0.4600824649    0.9454931244
C        4.9760714951    1.5805129488   -0.6364502533
C        3.4369304508   -0.0829748901   -0.2522987399
C        1.8161614254   -2.0006993468   -0.4617424032
N        3.8829452691    0.9149615166   -1.0293609796
N        1.5764440116   -2.2349230302    0.8802594754
N        2.2691900721   -0.6959778556   -0.7546112440
O        1.6648350389   -2.8461032349   -1.3318913805
H        5.7274130549   -0.0293450872    2.2473427827
H        6.5599294934    1.8679675151    0.8055729206
H        3.7027041909   -1.2913365252    1.5328809703
H        5.3047666136    2.3796060441   -1.2992279725
H        1.0902735492   -3.1067767512    1.0559922619
H        1.2628306757   -1.4459052481    1.4336309293
H        2.1928209302   -0.5125470201   -1.7519034359
17   
Generated by ForceBalance from scan.xyz: Frame 5 of 24
C        5.2158455679    0.2391752720    1.3204957496
C        5.6997690760    1.2685261125    0.5053030262
C        4.0489905023   -0.4317592609    0.9641310453
C        4.9803651791    1.5694099422   -0.6514767951
C        3.4029224993   -0.0457548025   -0.2252034328
C        1.8676530728   -1.9956034675   -0.4503495876
N        3.8600701539    0.9328762483   -1.0180892925
N        1.5070238051   -2.2543262363    0.8538895165
N        2.1981639510   -0.6289645102   -0.6835483874
O        1.9308036748   -2.8480850663   -1.3222600204
H        5.7428647799   -0.0419514327    2.2288396855
H        6.6045725955    1.8150244569    0.7520220021
H        3.6575092789   -1.2393272105    1.5710925716
H        5.3171044441    2.3560259117   -1.3250277643
H        1.1265214328   -3.1792678512    1.0154907635
H        1.0890211513   -1.4969891487    1.3802423518
H        2.1121104044   -0.4326298682   -1.6787879388
17   
Generated by ForceBalance from scan.xyz: Frame 6 of 24
C        5.2506295151    0.2329227706    1.2936435888
C        5.7375945950    1.2549565431    0.4698883000
C        4.0610778257   -0.4087634404    0.9621004661
C        4.9955643279    1.5771972527   -0.6662547190
C        3.3955933979   -0.0053416238   -0.2106700310
C        1.9292309343   -1.9727628229   -0.4167002646
N        3.8532364680    0.9658453565   -1.0105974162
N        1.4052579932   -2.2347308702    0.8238688026
N        2.1623616132   -0.5674046459   -0.6202162989
O        2.2149058783   -2.8279428540   -1.2379860008
H        5.7923762734   -0.0620853793    2.1888094193
H        6.6603171855    1.7801039820    0.6959120207
H        3.6591294178   -1.2042932271    1.5796872263
H        5.3320569276    2.3610879024   -1.3430756687
H        1.1013691790   -3.1860796980    0.9920138365
H        0.9061526457   -1.4916359889    1.2954064679
H        2.0507973483   -0.3580934938   -1.6112014312
17   
Generated by ForceBalance from scan.xyz: Frame 7 of 24
C        5.7023892165    0.0839257577    1.0316437645
C        5.6743672729    1.4111632011    0.5819704228
C        4.7440437427   -0.8156840907    0.5765583920
C        4.6678160975    1.7754940830   -0.3107456304
C        3.7622444776   -0.3319237755   -0.3075428819
C        2.1064685626   -2.1121528338    0.0206984038
N        3.7186290530    0.9316381434   -0.7465229534
N        0.7728301837   -1.8190536794    0.2380411451
N        2.7552953134   -1.1743860481   -0.8312509752
O        2.6330659359   -3.1465326762    0.3989074500
H        6.4744014354   -0.2502155764    1.7201351625
H        6.4116322906    2.1383492226    0.9077516334
H        4.7405386542   -1.8583398433    0.8737565409
H        4.6077084114    2.7924773744   -0.6949461403
H        0.3012495756   -2.4545278022    0.8710625008
H        0.4886101695   -0.8487990931    0.2975303451
H        2.1007442645   -0.6023340851   -1.3599951772
17   
Generated by ForceBalance from scan.xyz: Frame 8 of 24
C        5.7533002932    0.0780656674    1.0097739427
C        5.7513356971    1.3998698760    0.5453356472
C        4.7482626064   -0.7956016278    0.6058781210
C        4.7224277725    1.7873808113   -0.3119503495
C        3.7487776267   -0.2887279672   -0.2438685111
C        2.0717177313   -2.0722539252    0.0814424094
N        3.7312697051    0.9700381899   -0.6995715019
N        0.6916165375   -1.9495251580    0.1322635948
N        2.6864397230   -1.0880153445   -0.7199524259
O        2.6728476900   -3.0244742757    0.5590213604
H        6.5406799180   -0.2738865685    1.6714835129
H        6.5246132312    2.1057012772    0.8324027501
H        4.7196814444   -1.8326552851    0.9179164092
H        4.6803623233    2.8011989840   -0.7067945562
H        0.2465003147   -2.6327476994    0.7338260975
H        0.2892325957   -1.0205965966    0.1675329878
H        2.0385051858   -0.5072486354   -1.2454211811
17   
Generated by ForceBalance from scan.xyz: Frame 9 of 24
C        5.7963464820    0.0801267536    0.9854351451
C        5.8210903699    1.3936738854    0.5005947373
C        4.7464490903   -0.7651082529    0.6370015552
C        4.7721102483    1.8035041413   -0.3219720729
C        3.7325873664   -0.2375774750   -0.1821666422
C        2.0466135638   -2.0383348278    0.1222566460
N        3.7412635250    1.0147123336   -0.6582959869
N        0.6601087780   -2.0695480051    0.0299259330
N        2.6203721438   -0.9914790238   -0.6072156741
O        2.6927160903   -2.9197758390    0.6756208027
H        6.5964430239   -0.2890668839    1.6220500677
H        6.6285248558    2.0767029173    0.7457957425
H        4.6930244758   -1.7937619822    0.9700599762
H        4.7482491388    2.8123456900   -0.7308869214
H        0.2449532022   -2.7924051100    0.6058450898
H        0.1589249979   -1.1890493523    0.0346157166
H        1.9819107692   -0.4093054923   -1.1407241784
17   
Generated by ForceBalance from scan.xyz: Frame 10 of 24
C        5.8250016653    0.0780509352    0.9619683730
C        5.8778400523    1.3788973955    0.4473829684
C        4.7318330417   -0.7365579896    0.6781664774
C        4.8107670198    1.8093710420   -0.3412090168
C        3.7066156556   -0.1906185567   -0.1145817486
C        2.0243982424   -2.0195543678    0.1553527144
N        3.7415680769    1.0511197429   -0.6192765599
N        0.6567109430   -2.1743296284   -0.0560804110
N        2.5474152570   -0.8973771236   -0.4784875479
O        2.6979823645   -2.8533187009    0.7506191962
H        6.6360147636   -0.3063746390    1.5753424344
H        6.7184695944    2.0368966411    0.6448964209
H        4.6546521476   -1.7532213882    1.0400712098
H        4.8055853662    2.8098049366   -0.7709987232
H        0.2684103592   -2.9352826195    0.4885741484
H        0.0800837157   -1.3411495120   -0.0723250495
H        1.9177916093   -0.3226489855   -1.0285114441
17   
Generated by ForceBalance from scan.xyz: Frame 11 of 24
C        5.8406324162    0.0787074745    0.9408206185
C        5.9169818250    1.3630086603    0.3896796721
C        4.7072623905   -0.7021858373    0.7279482534
C        4.8316169376    1.8119702166   -0.3631182834
C        3.6698927404   -0.1425897219   -0.0393569837
C        2.0053229779   -2.0070729292    0.1813214883
N        3.7270982558    1.0851156345   -0.5770850290
N        0.6714476176   -2.2551658285   -0.1378954086
N        2.4685551150   -0.8057991543   -0.3328329281
O        2.6976386270   -2.8168882830    0.7892467306
H        6.6627164899   -0.3188640153    1.5306609511
H        6.7878030846    1.9950871654    0.5337946408
H        4.6096839985   -1.7039587402    1.1236148435
H        4.8420647225    2.8013275264   -0.8178009046
H        0.3053040081   -3.0573163974    0.3609745080
H        0.0357273693   -1.4664946732   -0.1699801139
H        1.8508114909   -0.2455416259   -0.9095389552
17   
Generated by ForceBalance from scan.xyz: Frame 12 of 24
C        5.8691915220   -0.0080722935    0.8981997028
C        5.9645340936    1.2860724418    0.3740971557
C        4.6820331944   -0.7251413451    0.7700007271
C        4.8416866202    1.8111367998   -0.2662027809
C        3.6158652504   -0.0960903568    0.1028195462
C        1.9067059544   -1.9203741253    0.3376918948
N        3.6889722488    1.1436295876   -0.4049191177
N        0.5880279754   -2.1789507089   -0.0340239961
N        2.3651877171   -0.6941857606   -0.1165965688
O        2.5575699255   -2.6966277508    1.0293892958
H        6.7156917644   -0.4605322284    1.4085728056
H        6.8753677279    1.8707351901    0.4588706020
H        4.5608965885   -1.7235948688    1.1670890042
H        4.8615229629    2.8141520304   -0.6895649765
H        0.3321128187   -3.1457366882    0.1281269070
H        0.2655261752   -1.8145733176   -0.9232321774
H        1.7121573694   -0.0603723963   -0.5638621552
17   
Generated by ForceBalance from scan.xyz: Frame 13 of 24
C        5.8637709345   -0.0145274697    0.8759010095
C        5.9696808109    1.2596013943    0.3063926416
C        4.6517529561   -0.6988575045    0.8271810855
C        4.8326502403    1.7972282767   -0.2973219816
C        3.5748075870   -0.0629157744    0.1839660186
C        1.8968846515   -1.9203878416    0.3589107971
N        3.6573881608    1.1583626903   -0.3649889612
N        0.6228925110   -2.2212527585   -0.1216217501
N        2.2979682202   -0.6295925639    0.0519662980
O        2.5441015189   -2.7064175359    1.0429937168
H        6.7198864288   -0.4744303214    1.3630785487
H        6.8988745164    1.8205011690    0.3312743272
H        4.5201977177   -1.6792310240    1.2644589269
H        4.8597853521    2.7866497016   -0.7511629891
H        0.4034037717   -3.2050264360   -0.0184692669
H        0.3524771637   -1.8344184658   -1.0186768218
H        1.6496418804   -0.0142150013   -0.4265863229
17   
Generated by ForceBalance from scan.xyz: Frame 14 of 24
C        5.8536594204   -0.0223240991    0.8565961404
C        5.9616674782    1.2308365549    0.2420289225
C        4.6254632893   -0.6777973712    0.8883670861
C        4.8092705019    1.7765874738   -0.3234713636
C        3.5353069317   -0.0390452244    0.2709893033
C        1.8936959791   -1.9207378393    0.3886392677
N        3.6183310300    1.1622491990   -0.3188526644
N        0.6816648613   -2.2456526601   -0.2158965482
N        2.2400018065   -0.5831506568    0.2278745913
O        2.5208556147   -2.7183419045    1.0769558045
H        6.7211666772   -0.4861939949    1.3191641656
H        6.9032435816    1.7700805176    0.2058667179
H        4.4914445203   -1.6395157715    1.3654561886
H        4.8364798996    2.7512530150   -0.8081438000
H        0.4886797774   -3.2395054291   -0.1759749908
H        0.4670130167   -1.8193181144   -1.1098765778
H        1.5984013116    0.0152748634   -0.2815551582
17   
Generated by ForceBalance from scan.xyz: Frame 15 of 24
C        5.8462511117   -0.0303432526    0.8320290136
C        5.9456089513    1.2053316999    0.1806324893
C        4.6074969893   -0.6563603315    0.9402168170
C        4.7781319704    1.7610832968   -0.3419285705
C        3.5013162790   -0.0128290073    0.3575787898
C        1.8939720983   -1.9068590347    0.4416739741
N        3.5766473237    1.1706268065   -0.2659331229
N        0.7730729542   -2.2381104168   -0.3104756020
N        2.1956516197   -0.5413061073    0.4022751271
O        2.4663429540   -2.7122656773    1.1657561608
H        6.7263927817   -0.4993621518    1.2645934913
H        6.8940669910    1.7249073072    0.0853908689
H        4.4764756958   -1.6016365887    1.4512836126
H        4.8003971456    2.7233297999   -0.8509758415
H        0.5923196644   -3.2349128818   -0.3267657603
H        0.6367291296   -1.7717452609   -1.1995146106
H        1.5578694068    0.0474255836   -0.1247931819
17   
Generated by ForceBalance from scan.xyz: Frame 16 of 24
C        5.8270253704   -0.0593079674    0.7980665078
C        5.9199087718    1.1603722135    0.1149269360
C        4.5823958858   -0.6553289285    0.9773812246
C        4.7412437773    1.7289683755   -0.3658870010
C        3.4636513599   -0.0020328864    0.4299540476
C        1.8805306586   -1.8961628753    0.4969541372
N        3.5322757529    1.1642297339   -0.2238229053
N        0.8891726152   -2.2149595898   -0.4187128412
N        2.1538933154   -0.5139126248    0.5583722984
O        2.3555225744   -2.7131103919    1.2734704037
H        6.7169937091   -0.5362360518    1.2007995106
H        6.8729624597    1.6581332450   -0.0350485834
H        4.4558308976   -1.5850731792    1.5188874084
H        4.7590584839    2.6796344803   -0.8963605640
H        0.7124734457   -3.2100277301   -0.4925452619
H        0.8600234717   -1.7088290101   -1.2957040982
H        1.5120663486    0.0651383655    0.0235991510
17   
Generated by ForceBalance from scan.xyz: Frame 17 of 24
C        5.8021352392   -0.0841537853    0.7530936702
C        5.8861004946    1.1231621537    0.0460710492
C        4.5562886104   -0.6514314552    0.9999122530
C        4.6972413127    1.7063820163   -0.3889940121
C        3.4247908235    0.0150835818    0.4949333372
C        1.8597755111   -1.8725944959    0.5722952469
N        3.4848103699    1.1672989287   -0.1832750563
N        1.0498705624   -2.1767465650   -0.5063251951
N        2.1172504117   -0.4790130101    0.7052302402
O        2.1960341247   -2.6965256884    1.4079857102
H        6.7008795128   -0.5718269199    1.1219877459
H        6.8402967074    1.5996957579   -0.1562602530
H        4.4387296909   -1.5688444425    1.5656178122
H        4.7083458169    2.6479016195   -0.9356936660
H        0.8837102915   -3.1674470371   -0.6399671160
H        1.1368432948   -1.6281641099   -1.3532162558
H        1.4673938401    0.0952708257    0.1731139848
17   
Generated by ForceBalance from scan.xyz: Frame 18 of 24
C        5.6946641425   -0.2432297733    0.2561256474
C        5.8241069381    1.1502731773    0.2143150657
C        4.4313955358   -0.8200745612    0.1671097732
C        4.6575860742    1.9049382122    0.0919977231
C        3.3216724299    0.0377318335    0.0496459574
C        1.5988480640   -1.6178873444    0.6459594687
N        3.4299906173    1.3718775081    0.0150707281
N        1.8680164586   -2.7722449004   -0.0436302415
N        1.9970397756   -0.4431842293   -0.0831678492
O        1.1225685759   -1.5827220881    1.7683666192
H        6.5718260168   -0.8775558571    0.3563338850
H        6.7927755915    1.6358200893    0.2789975082
H        4.2988920439   -1.8958780669    0.1980245529
H        4.7019222272    2.9925180652    0.0597328330
H        1.5109182568   -3.6314541592    0.3559005314
H        1.9540048001   -2.7189821240   -1.0501573129
H        1.3726509055    0.3229515901    0.1645974525
17   
Generated by ForceBalance from scan.xyz: Frame 19 of 24
C        5.6893706580   -0.2658903389    0.2319935146
C        5.8219690207    1.1265081875    0.1878278412
C        4.4219469799   -0.8401007832    0.1810033842
C        4.6536190671    1.8842271769    0.1039161438
C        3.3109052391    0.0196130247    0.0965699976
C        1.5319082953   -1.6377408537    0.6408023743
N        3.4239236982    1.3543621780    0.0611057404
N        1.9743615249   -2.7792756783    0.0090775552
N        1.9752202416   -0.4384787028    0.0114394256
O        0.8531302745   -1.6392318787    1.6558406703
H        6.5668091595   -0.9033933422    0.3065034830
H        6.7934684483    1.6093602233    0.2231829821
H        4.2895975738   -1.9146053763    0.2239002657
H        4.6991420424    2.9718384313    0.0744767467
H        1.5579730725   -3.6402540446    0.3433559831
H        2.1527508593   -2.7216009152   -0.9859892463
H        1.3621088107    0.3263410270    0.2862801585
17   
Generated by ForceBalance from scan.xyz: Frame 20 of 24
C        5.6870370403   -0.2764298091    0.2111464279
C        5.8252111929    1.1129752372    0.1278270119
C        4.4154047752   -0.8449354607    0.2198819760
C        4.6576031455    1.8751145849    0.0701036650
C        3.3056268096    0.0176831638    0.1495614596
C        1.4765978157   -1.6479538004    0.6283675403
N        3.4254423674    1.3516498548    0.0801868999
N        2.0368758656   -2.7651615276    0.0358375863
N        1.9638438145   -0.4195782731    0.1313330053
O        0.6385168218   -1.7031432202    1.5168496060
H        6.5628719027   -0.9174145959    0.2737383090
H        6.7996921413    1.5909239136    0.1166633669
H        4.2819007949   -1.9160484473    0.3062603632
H        4.7071857233    2.9616527424    0.0168745549
H        1.5596761599   -3.6277079511    0.2717087300
H        2.3166949952   -2.6770857522   -0.9342483143
H        1.3554049160    0.3425084956    0.4195731295
17   
Generated by ForceBalance from scan.xyz: Frame 21 of 24
C        5.6891516740   -0.2857099914    0.1977187679
C        5.8281735840    1.0992860473    0.0647609458
C        4.4177727788   -0.8508887125    0.2716325497
C        4.6606441246    1.8635389809    0.0288668488
C        3.3077962660    0.0125279162    0.2063299859
C        1.4373283473   -1.6627858644    0.5971032922
N        3.4291533746    1.3444384476    0.0949421062
N        2.0820723070   -2.7531420181    0.0319644975
N        1.9666667992   -0.4108342423    0.2558944764
O        0.4735832784   -1.7677326281    1.3444558099
H        6.5651660226   -0.9270442044    0.2533183264
H        6.8027449211    1.5731559491    0.0032526446
H        4.2877058930   -1.9165780000    0.4103705192
H        4.7108115859    2.9481317938   -0.0547610881
H        1.5545252462   -3.6115746938    0.1451390427
H        2.4739396179   -2.6201489264   -0.8938990019
H        1.3515079719    0.3439955306    0.5451855832
17   
Generated by ForceBalance from scan.xyz: Frame 22 of 24
C        5.6957862623   -0.2998784039    0.2154125100
C        5.8369436450    1.0782183838    0.0265478734
C        4.4247918566   -0.8526725523    0.3587123663
C        4.6731853390    1.8493971701    0.0099310118
C        3.3168186862    0.0141790120    0.2955369723
C        1.4112929764   -1.6606729665    0.5813848091
N        3.4420084439    1.3414284042    0.1360024314
N        2.1064848084   -2.7216884093    0.0155564597
N        1.9816915048   -0.3983454905    0.4208388468
O        0.3582112674   -1.8049073176    1.1909859337
H        6.5698798361   -0.9441789081    0.2663483892
H        6.8111157974    1.5429723810   -0.0879076135
H        4.2951345803   -1.9096014257    0.5541260022
H        4.7270943199    2.9304332362   -0.1097321060
H        1.5425592419   -3.5639705659   -0.0112847101
H        2.6086672513   -2.5320863064   -0.8452102464
H        1.3554086943    0.3508484574    0.6973503714
17   
Generated by ForceBalance from scan.xyz: Frame 23 of 24
C        5.6948750407   -0.3030820415    0.2126941754
C        5.8237136855    1.0671938171   -0.0336491642
C        4.4318328212   -0.8508008321    0.4275366348
C        4.6581516956    1.8361004444   -0.0321854765
C        3.3188161336    0.0101947484    0.3675607931
C        1.3881786680   -1.6560657928    0.5542215821
N        3.4336080448    1.3313059414    0.1565610689
N        2.1214872991   -2.6964744535   -0.0054120731
N        1.9967182159   -0.4050621383    0.5713910262
O        0.2678476218   -1.8136084163    1.0263164814
H        6.5725975039   -0.9428727616    0.2570975021
H        6.7912982299    1.5291112721   -0.2025716068
H        4.3122017292   -1.8978733023    0.6769691192
H        4.7051875192    2.9123697952   -0.1910167201
H        1.5360830997   -3.5094092792   -0.1632450560
H        2.7201912406   -2.4646261557   -0.7911234409
H        1.3567055960    0.3476239174    0.8011478578
17   
Generated by ForceBalance from scan.xyz: Frame 24 of 24
C        5.2034748596    0.2167790408    1.3542286931
C        5.5124602727    1.3925523265    0.6631700722
C        4.2499117277   -0.6568943558    0.8360219874
C        4.8523605701    1.6273952634   -0.5447378201
C        3.6099948147   -0.2983197448   -0.3662089629
C        1.6773185465   -1.9577430228   -0.4758221522
N        3.9187042197    0.8135066067   -1.0519045495
N        1.6329048850   -2.0999195580    0.9061341827
N        2.6461863769   -1.1001890614   -0.9921514490
O        0.9270117183   -2.5701044617   -1.2274637501
H        5.7160692992   -0.0331000690    2.2796542985
H        6.2530386422    2.0943581353    1.0335658147
H        4.0384523710   -1.6052636207    1.3157663625
H        5.0795651069    2.5127029550   -1.1366069696
H        0.7840087885   -2.5749554379    1.1925376553
H        1.8512880095   -1.2806729049    1.4632235973
H        2.4739210703   -0.8575877070   -1.9621595658
