43

C      0.08532    6.33306   -0.20919
C      0.81883    6.05878   -1.38303
C     -1.02768    5.56324    0.12504
C      0.47478    5.01024   -2.23785
C     -1.38912    4.52295   -0.73573
C     -0.63944    4.24210   -1.88568
C     -2.48808    3.54812   -0.66727
C     -2.03830    0.36353   -2.21290
C      0.68789   -0.82528   -0.41341
C     -0.61235   -1.28075   -1.10396
C     -2.05856    0.15714    0.29075
C     -0.96648   -0.11523    1.34535
C      0.43811    0.15737    0.76605
C     -1.28647    0.66048    2.62748
C      0.62384    1.60824    0.30601
C     -3.02622    1.53905   -2.10719
N     -1.14383    3.09306   -2.51310
N     -2.34854    2.79144   -1.82693
N     -1.61433   -0.21675   -1.05903
O     -3.34511    3.35660    0.19793
O     -1.65623    0.01630   -3.33550
O      1.35501   -0.12760    1.84227
H      0.39423    7.15237    0.43350
H      1.68087    6.67482   -1.62522
H     -1.61091    5.75667    1.02080
H      1.05758    4.79459   -3.12913
H      1.20314   -1.70633   -0.01816
H      1.34907   -0.35508   -1.14968
H     -0.44441   -1.54155   -2.14758
H     -1.02561   -2.16168   -0.59870
H     -2.96128   -0.40863    0.56009
H     -2.32374    1.21176    0.31933
H     -0.97615   -1.18279    1.59822
H     -1.33574    1.73858    2.44726
H     -0.53040    0.46728    3.39078
H     -2.26190    0.35285    3.02058
H      0.39433    2.31846    1.10352
H      0.00450    1.83289   -0.56331
H      1.66493    1.76964   -0.00042
H     -3.77956    1.42708   -1.32541
H     -3.52905    1.59431   -3.07694
H     -1.28677    3.14444   -3.52111
H      2.24949    0.08544    1.53120
