39

C     -1.69887   -5.04837   -3.58028
C     -3.42265    2.63843    3.39610
C     -2.25818   -4.48877   -2.44989
C     -2.42116    2.23924    2.51320
C     -0.47040   -4.56435   -4.08920
C     -1.40779   -1.75086   -0.02692
C     -3.73923    3.99899    3.48452
C     -2.16477    4.54139    1.91578
C     -1.60870   -3.41875   -1.77834
C     -1.76268    3.20957    1.74215
C     -0.36380   -2.91179   -2.27385
C     -2.11829   -2.78155   -0.60374
C      0.16233   -3.52868   -3.44489
C     -0.18645   -1.33992   -0.61280
C     -0.99751    1.68290   -0.20556
C      0.44295    1.91702    1.31934
C     -0.67319    2.85499    0.76833
C      0.61980   -0.22655    0.02624
N     -3.12575    4.94350    2.76023
N      0.32555   -1.88928   -1.70303
N     -0.22223    0.76749    0.66596
O     -3.29252   -3.15367   -0.02004
F      1.33119   -3.07038   -3.93340
H     -2.19935   -5.86697   -4.08892
H     -3.95318    1.91399    4.00816
H     -3.20376   -4.88981   -2.09019
H     -2.14317    1.19237    2.41450
H     -0.01837   -4.99440   -4.97758
H     -1.77928   -1.25263    0.86125
H     -4.51709    4.34281    4.16497
H     -1.68125    5.32980    1.33796
H     -2.05101    1.41244   -0.33081
H     -0.53830    1.82599   -1.19611
H      1.42654    2.15423    0.88438
H      0.53664    1.83338    2.40756
H     -0.30253    3.75829    0.28010
H      1.27205   -0.66416    0.79404
H      1.27584    0.20227   -0.74981
H     -3.69652   -3.88210   -0.51640
