23

C      1.60534   -1.17659   -3.34449
C      1.12141   -3.38343   -2.88685
C     -0.76933   -2.88036    0.16251
C      0.31072   -1.62090   -1.38064
C      0.95976   -0.68316   -2.20701
C     -0.48299   -1.56526   -0.17460
C      0.43482   -2.98766   -1.73507
C     -1.04635   -0.35451    0.45074
C      1.15903    0.75994   -1.82721
C     -1.57807   -0.45674    1.86788
N      1.68366   -2.48124   -3.68892
N     -0.22553   -3.73215   -0.76480
O     -1.08996    0.70004   -0.17512
O      1.79312    1.09773   -0.85622
O      0.68311    1.67592   -2.71282
H      2.12473   -0.48850   -4.00914
H      1.21883   -4.43184   -3.16783
H     -1.35028   -3.26825    0.98868
H     -0.75712   -0.67922    2.55833
H     -2.31663   -1.26028    1.96258
H     -2.03995    0.49104    2.14714
H     -0.32700   -4.73807   -0.76349
H      0.09352    1.22992   -3.34463
