21

C     -0.67901    3.39199    2.07502
C     -0.46725    3.11885    3.42819
C      0.10520    1.13874    1.45903
C     -0.39159    2.40909    1.13491
C      0.02330    1.87165    3.79291
C      0.30017    0.90776    2.82617
C     -0.24174   -1.29944    0.55382
C      1.19186   -1.86123    0.72849
C      0.40732    0.11185    0.39274
N      1.76475   -0.51985    0.40659
F     -0.61059    2.70430   -0.17251
F      0.23760    1.57544    5.09328
F      0.77581   -0.28801    3.24263
H     -1.06138    4.35212    1.74511
H     -0.67610    3.85526    4.19736
H     -0.76182   -1.63704   -0.34500
H     -0.90085   -1.41737    1.41514
H      1.40338   -2.21410    1.74287
H      1.49616   -2.63059    0.01162
H      0.20443    0.57355   -0.57472
H      2.38186   -0.15373    1.12734
