43

C      5.31389    2.67674   -3.67403
C      5.38944    1.32349   -4.06223
C      4.07720    3.28240   -3.45149
C      4.24242    0.54194   -4.22247
C      2.92695    2.50878   -3.62554
C      3.01273    1.16088   -3.98456
C      1.49959    2.84557   -3.47077
C     -1.03524    1.95860   -2.07364
C      0.97545    0.15398    0.37079
C      0.98230    1.04214   -0.87865
C     -0.58645    2.58543    0.23503
C     -0.61029    1.72547    1.50627
C      0.70588    0.92611    1.67412
C     -0.97222    2.58101    2.72437
C      1.90130    1.79924    2.06065
C     -0.54955    1.37805   -3.42033
N      1.72234    0.58142   -4.01572
N      0.82301    1.67409   -3.81523
N     -0.25818    1.80781   -0.96081
O      0.95963    3.87846   -3.08828
O     -2.13749    2.50505   -2.05748
O      0.58152   -0.01290    2.76188
H      6.22969    3.24767   -3.55094
H      6.36374    0.87298   -4.23223
H      3.99325    4.32508   -3.15865
H      4.30998   -0.50519   -4.50483
H      0.19147   -0.60574    0.24760
H      1.93153   -0.37405    0.45184
H      1.84194    1.72572   -0.85580
H      1.09611    0.40803   -1.75538
H     -1.55905    3.04678    0.06973
H      0.15087    3.39361    0.33865
H     -1.40470    0.97675    1.36463
H     -0.30720    3.44571    2.81990
H     -0.90203    1.99596    3.64531
H     -1.99502    2.96147    2.63433
H      1.74131    2.25007    3.04233
H      2.07581    2.59898    1.33705
H      2.80287    1.18228    2.11691
H     -1.24528    1.78275   -4.15698
H     -0.65716    0.28977   -3.41062
H      1.51604    0.12860   -4.90753
H     -0.16826   -0.59771    2.56388
