28   
Generated by ForceBalance from scan.xyz: Frame 1 of 24
C        3.4055080635   -1.6760936553   -1.5243681793
C        3.0677056659   -4.2430382847   -0.8844296970
C        2.3646676472   -2.0706702995   -0.6542525190
C        4.2402227138   -2.6650728257   -2.0214404658
C        1.4682828310   -1.1248451906   -0.0479626083
C        6.6118928968   -0.6839952510   -1.8611512496
C        0.0381165664   -2.4691136930    2.0174342308
C       -0.9755715134   -0.1403750685    0.6611073826
C        5.3652747332   -2.3528416737   -2.9904146554
N        2.2130837737   -3.3839029096   -0.3286044916
N        4.0837853611   -3.9707224564   -1.7096402861
O       -0.9071151658   -2.5671973538   -0.4557140400
O        5.7874418143   -0.9977772990   -2.9776944627
S       -0.0636957443   -1.6799901919    0.3918124988
H        3.5492319440   -0.6384332435   -1.8084883325
H        2.9250608779   -5.2925995432   -0.6274749880
H        1.4297695142   -0.1123515057   -0.4391958699
H        6.8879533615    0.3687248555   -1.9566237817
H        7.5248482981   -1.2974609658   -1.8610262792
H        6.0866185877   -0.8338185737   -0.9080345103
H       -0.9612254667   -2.8073213661    2.2984202538
H        0.7100221814   -3.3150214900    1.8638853273
H        0.4590242274   -1.7637367173    2.7348055324
H       -1.9283382974   -0.4102756060    1.1186126497
H       -0.4088418750    0.5456354313    1.2913308578
H       -1.1474311053    0.2796754950   -0.3305770994
H        6.2007883138   -3.0366552053   -2.7858457759
H        5.0166747277   -2.5553256223   -4.0089840808
28   
Generated by ForceBalance from scan.xyz: Frame 2 of 24
C        3.4385986284   -1.6776234530   -1.4452901909
C        3.0930581762   -4.2792475596   -0.9738709396
C        2.4382025753   -2.1226666283   -0.5529109589
C        4.2330353418   -2.6380796498   -2.0531707125
C        1.5846426831   -1.2124884220    0.1634694376
C        6.6407149348   -0.7078756490   -1.8587321064
C       -0.0678569964   -2.3680265983    2.2013702927
C       -0.9321929326   -0.1852520775    0.5222568889
C        5.3148265647   -2.2684093773   -3.0508793508
N        2.2860770203   -3.4524904401   -0.3093240070
N        4.0705331286   -3.9602502446   -1.8299501641
O       -0.7272200952   -2.7058237093   -0.3339162804
O        5.7612115952   -0.9240879148   -2.9562523112
S        0.0131121541   -1.7297258712    0.5080876455
H        3.5823165769   -0.6240970766   -1.6637654134
H        2.9475435289   -5.3429140786   -0.7858039738
H        1.5879765141   -0.1677950363   -0.1344910648
H        6.9313244808    0.3448968037   -1.8876621971
H        7.5414744890   -1.3329513538   -1.9468986091
H        6.1563576604   -0.9218296043   -0.8962725513
H       -1.0941603225   -2.6737265630    2.4152281071
H        0.6016947599   -3.2303099150    2.1950503741
H        0.2949842893   -1.6061902414    2.8925930008
H       -1.9205020221   -0.4140378111    0.9240950163
H       -0.4307448656    0.5806145549    1.1159492384
H       -1.0107957094    0.1102171919   -0.5242656024
H        6.1471223311   -2.9773200859   -2.9402991117
H        4.9143480199   -2.3869042680   -4.0635729482
28   
Generated by ForceBalance from scan.xyz: Frame 3 of 24
C        3.4303838963   -1.7299160998   -1.4177154548
C        3.0831596822   -4.3614107504   -1.2032145527
C        2.4447895536   -2.2606433449   -0.5528388903
C        4.2110528741   -2.6244285766   -2.1332716423
C        1.6245232769   -1.3970969514    0.2554910689
C        6.6336957882   -0.7363511502   -1.7824403302
C       -0.1708985588   -2.1338169909    2.3900057744
C       -0.9184304094   -0.2964313450    0.3411696990
C        5.2774796492   -2.1579222839   -3.1068888256
N        2.2941414344   -3.6056565635   -0.4395926786
N        4.0462631505   -3.9617420263   -2.0424258158
O       -0.6497920173   -2.9351252000   -0.0852210189
O        5.7346156407   -0.8325259690   -2.8811052507
S        0.0325237317   -1.8197116792    0.6118405911
H        3.5737793643   -0.6600099595   -1.5333064762
H        2.9363721368   -5.4383289622   -1.1201305992
H        1.7146077500   -0.3247633493    0.1093807589
H        6.9310708304    0.3122395659   -1.7064133912
H        7.5286749621   -1.3532606537   -1.9507975006
H        6.1640515235   -1.0473563472   -0.8393687144
H       -1.2232178032   -2.3385158892    2.6002565491
H        0.4430086008   -3.0143500931    2.5885928160
H        0.2041242597   -1.2768404992    2.9521862633
H       -1.9233557943   -0.4559283038    0.7368734267
H       -0.4368622576    0.5561427486    0.8236971905
H       -0.9472094042   -0.1709393531   -0.7415562463
H        6.1071754684   -2.8780952443   -3.0853513746
H        4.8595492650   -2.1680550286   -4.1193912578
28   
Generated by ForceBalance from scan.xyz: Frame 4 of 24
C        3.4002445356   -1.5821117830   -1.6568707239
C        2.6117090507   -4.0390237075   -2.3111258782
C        2.1699539908   -2.0964941689   -1.1827540669
C        4.1741220505   -2.3997927073   -2.4655289210
C        1.3022460330   -1.2916550792   -0.3645340277
C        6.7240011186   -1.2648070407   -1.1420291871
C        0.5240617793   -0.9289236189    2.2715928003
C       -1.4439766784   -1.6147753233    0.4496134865
C        5.4923397566   -1.9300770883   -3.0529977627
N        1.7739361118   -3.3446729971   -1.5415631879
N        3.7958396816   -3.6519845969   -2.8010659753
O        0.3990670074   -3.4134577837    1.1694170496
O        6.0939848745   -0.8529001989   -2.3492417884
S        0.3052633673   -1.9845626234    0.8018903143
H        3.7407743220   -0.5841870341   -1.3981642591
H        2.2883778396   -5.0450926068   -2.5785463695
H        1.6562954027   -0.3178975952   -0.0403618168
H        7.1622007387   -0.3710542715   -0.6914711937
H        7.5216884763   -1.9949995760   -1.3428861757
H        6.0088037131   -1.7109255300   -0.4373727440
H       -0.2349525083   -1.2115999761    3.0034482320
H        1.5236759364   -1.1419289609    2.6525621871
H        0.4289457591    0.1223116540    1.9943320298
H       -2.0596499186   -1.9646114122    1.2816626987
H       -1.5450148454   -0.5406785721    0.2869394971
H       -1.6869433872   -2.1578922055   -0.4656816339
H        6.1699244886   -2.7921768918   -3.1225135068
H        5.3148253793   -1.5667856317   -4.0711339138
28   
Generated by ForceBalance from scan.xyz: Frame 5 of 24
C        3.4096536943   -1.4932519420   -1.6198910890
C        2.4134888558   -3.8533254650   -2.3589312310
C        2.1624361796   -1.9369605592   -1.1270739412
C        4.0925617617   -2.3297156122   -2.4904086010
C        1.3575783465   -1.1360011837   -0.2426483877
C        6.7586040079   -1.4389129995   -1.2039246712
C        0.3297498370   -0.7452826208    2.2614473500
C       -1.3464273223   -1.8911388635    0.3725192451
C        5.4261351895   -1.9361321379   -3.0984331275
N        1.6595494338   -3.1354832541   -1.5270549326
N        3.6075853290   -3.5313783587   -2.8703341863
O        0.6751525922   -3.2993518605    1.4109901761
O        6.1241969176   -0.9344788026   -2.3736148502
S        0.3943597134   -1.9385512283    0.8921182843
H        3.8324502790   -0.5366666802   -1.3290602412
H        2.0058889962   -4.8178916790   -2.6611693992
H        1.8114066378   -0.2543054426    0.2007113380
H        7.2711724861   -0.5969369189   -0.7327643144
H        7.4968743402   -2.2132061300   -1.4591029436
H        6.0347109490   -1.8634334366   -0.4949442118
H       -0.4331820908   -1.0936912812    2.9592707421
H        1.3111517326   -0.7632847460    2.7370933603
H        0.0939143069    0.2502584609    1.8836058966
H       -1.9615121336   -2.3377473972    1.1569342140
H       -1.6159058041   -0.8540475923    0.1714496649
H       -1.4031850323   -2.4817852491   -0.5437726224
H        6.0350620209   -2.8426777346   -3.2193174641
H        5.2488347796   -1.5224733181   -4.0972486453
28   
Generated by ForceBalance from scan.xyz: Frame 6 of 24
C        3.4600258518   -1.4567622985   -1.5521562531
C        2.3325100637   -3.7469751546   -2.3262631715
C        2.2204570932   -1.8677107901   -1.0144320867
C        4.0666131230   -2.2883752943   -2.4815704614
C        1.4827989235   -1.0772274258   -0.0667105292
C        6.8228888691   -1.5333626695   -1.2953892379
C        0.1375079929   -0.6633869554    2.2623193173
C       -1.1851580069   -2.0453049038    0.2233372796
C        5.3867617536   -1.9289678434   -3.1378857123
N        1.6517782208   -3.0326595274   -1.4303230228
N        3.5136538820   -3.4543997637   -2.8814506975
O        0.7659389180   -3.2144897347    1.6281918335
O        6.1541638619   -0.9743876492   -2.4206414344
S        0.4549203592   -1.9112183737    0.9847860566
H        3.9336430769   -0.5277526037   -1.2508797265
H        1.8710297883   -4.6823168173   -2.6425105917
H        1.9894438420   -0.2617514763    0.4417520277
H        7.3878494793   -0.7235601113   -0.8278846633
H        7.5189917798   -2.3265036983   -1.6051883612
H        6.1173960195   -1.9503487426   -0.5638672935
H       -0.6652140925   -1.0487892898    2.8924149697
H        1.0543813148   -0.5703552152    2.8460335847
H       -0.1363808353    0.2870149736    1.8040146754
H       -1.8587701225   -2.5258393137    0.9360827328
H       -1.5191582888   -1.0469365670   -0.0592162451
H       -1.0457489086   -2.6696754274   -0.6605366017
H        5.9537517788   -2.8544377939   -3.3093238783
H        5.1813503344   -1.4826389797   -4.1170965188
28   
Generated by ForceBalance from scan.xyz: Frame 7 of 24
C        3.4543403318   -1.4586401572   -1.4593619916
C        2.2385806858   -3.6773746046   -2.3004818110
C        2.2345103939   -1.8751104362   -0.8779899516
C        3.9936734291   -2.2464891408   -2.4635461742
C        1.5820667500   -1.1161522571    0.1501895768
C        6.8221907576   -1.5963747489   -1.3828588833
C       -0.0204032659   -0.5779467620    2.2793108838
C       -1.0777245770   -2.1247484370    0.1725915231
C        5.2871612388   -1.8776558569   -3.1658400430
N        1.6237925258   -3.0070224787   -1.3251107498
N        3.3935408526   -3.3763079761   -2.9013646123
O        0.6947323687   -3.1456795794    1.8867062071
O        6.1062007403   -0.9719131699   -2.4429535317
S        0.4472871873   -1.8918621797    1.1233728508
H        3.9620349999   -0.5563142285   -1.1336104096
H        1.7396085269   -4.5833965807   -2.6443081901
H        2.1242451474   -0.3413397182    0.6828158477
H        7.4226621979   -0.8189451969   -0.9048539237
H        7.4892074810   -2.3816232933   -1.7676160927
H        6.1481904113   -2.0407155157   -0.6379509834
H       -0.8266927980   -0.9750167136    2.8975105262
H        0.8534374882   -0.3759791102    2.9006042484
H       -0.3307372337    0.3144697295    1.7361991770
H       -1.8184221860   -2.5768094518    0.8353063443
H       -1.4017378179   -1.1595177408   -0.2171537511
H       -0.8083765797   -2.8021795331   -0.6379075803
H        5.8273708013   -2.8032779140   -3.4085404752
H        5.0431200943   -1.3820022886   -4.1119103831
28   
Generated by ForceBalance from scan.xyz: Frame 8 of 24
C        3.4760753828   -1.4931554677   -1.3643051334
C        2.2083331719   -3.6319361389   -2.3205139756
C        2.2702061766   -1.9385483125   -0.7698153247
C        3.9715866395   -2.2088903000   -2.4405865706
C        1.6861291372   -1.2359287617    0.3328060723
C        6.8439904423   -1.6405896145   -1.4179472343
C       -0.1232034442   -0.4926827262    2.2243110417
C       -0.9828070457   -2.2050090090    0.1306886529
C        5.2446136405   -1.8018450285   -3.1587946968
N        1.6369330703   -3.0334421696   -1.2732550022
N        3.3426699510   -3.2978628305   -2.9403966813
O        0.5588094938   -3.0873600247    2.1126452224
O        6.0909301155   -0.9465247391   -2.4068087211
S        0.4276688391   -1.8976404168    1.2245469317
H        4.0039029973   -0.6202615329   -0.9935808037
H        1.6871938625   -4.5062507075   -2.7108267762
H        2.2487569923   -0.4844930348    0.8753713933
H        7.4567881770   -0.8955484361   -0.9052908228
H        7.5010955587   -2.3919807000   -1.8796309307
H        6.1966529331   -2.1410449508   -0.6851277427
H       -0.9393178405   -0.8532175993    2.8521379800
H        0.7201506662   -0.1991181606    2.8513940736
H       -0.4365266535    0.3306875546    1.5827792128
H       -1.8073920047   -2.5467928919    0.7591872068
H       -1.2250837765   -1.2901008123   -0.4110610105
H       -0.6501122805   -2.9841527875   -0.5537272461
H        5.7714226369   -2.7127854349   -3.4754540919
H        4.9742070722   -1.2479409261   -4.0645267844
28   
Generated by ForceBalance from scan.xyz: Frame 9 of 24
C        3.4522104949   -1.5434436713   -1.2733581018
C        2.0871774786   -3.5605262851   -2.3485387874
C        2.2552859676   -2.0037175290   -0.6677635826
C        3.8852736162   -2.1797513379   -2.4226539368
C        1.7487072862   -1.3689832485    0.5089434782
C        6.8084443002   -1.7548271652   -1.4721621588
C       -0.1884977317   -0.4323797209    2.1940485415
C       -0.9148373346   -2.3579852742    0.2290965086
C        5.1413211477   -1.7486437373   -3.1563509575
N        1.5744267201   -3.0387898894   -1.2313304199
N        3.2048361757   -3.2061993356   -2.9856384149
O        0.4914999627   -3.0078912074    2.3916904941
O        6.0361611374   -0.9717854160   -2.3761501849
S        0.4224437930   -1.9240260075    1.3692820589
H        4.0185506749   -0.7172619525   -0.8554823604
H        1.5256857189   -4.3856038973   -2.7875315909
H        2.3474488891   -0.6527984729    1.0601894610
H        7.4617103751   -1.0646548417   -0.9333601118
H        7.4254715192   -2.4865167053   -2.0138680964
H        6.1772607604   -2.2912514242   -0.7508397995
H       -1.0009531336   -0.7393348882    2.8547122092
H        0.6387338373   -0.0365672420    2.7855107327
H       -0.5155530418    0.2974714159    1.4534095918
H       -1.8201262682   -2.4308880633    0.8357323053
H       -0.9975052280   -1.6020588825   -0.5518500542
H       -0.6407970772   -3.3183450920   -0.2001933848
H        5.6328956926   -2.6448230370   -3.5600191642
H        4.8521268697   -1.1224480188   -4.0075481061
28   
Generated by ForceBalance from scan.xyz: Frame 10 of 24
C        3.4785869627   -1.5435277681   -1.2379841328
C        2.0397817671   -3.4205954554   -2.4560340569
C        2.2680029852   -2.0078780456   -0.6589136476
C        3.8839463979   -2.1020213221   -2.4356693415
C        1.8102273298   -1.4422925937    0.5712513447
C        6.8246455621   -1.8401234596   -1.4753354216
C       -0.2552159816   -0.3476270501    2.0437162086
C       -0.8162728001   -2.5300135148    0.3070478633
C        5.1506496386   -1.6585822411   -3.1430993070
N        1.5499000805   -2.9715014672   -1.2970692055
N        3.1651750633   -3.0576550230   -3.0726806706
O        0.5190165106   -2.8221357767    2.6040337775
O        6.0726698260   -0.9693894084   -2.3138874466
S        0.4499896890   -1.9021961228    1.4317745658
H        4.0752536467   -0.7718843168   -0.7621444649
H        1.4466917374   -4.1884251492   -2.9537457585
H        2.4433938705   -0.7665690143    1.1362803087
H        7.5018588965   -1.2118106097   -0.8922530181
H        7.4158076783   -2.5486616329   -2.0737163905
H        6.1806968231   -2.4083250037   -0.7905839238
H       -1.0919343394   -0.5959146812    2.6993787991
H        0.5318842801    0.1456714159    2.6167637388
H       -0.5606121035    0.2745940411    1.2021195691
H       -1.7401172353   -2.5423433283    0.8899788640
H       -0.8870352640   -1.8985440500   -0.5777260528
H       -0.5079124403   -3.5329500567    0.0243452747
H        5.6118790259   -2.5381900720   -3.6136284880
H        4.8787242159   -0.9635470509   -3.9451380396
28   
Generated by ForceBalance from scan.xyz: Frame 11 of 24
C        3.3968752974   -1.4931400739   -1.2079812680
C        1.8192091939   -3.1501457062   -2.5632193504
C        2.1454139102   -1.8942004276   -0.6670420444
C        3.7660387243   -1.9961870810   -2.4407198967
C        1.7409858582   -1.3765483365    0.6028221768
C        6.7091571164   -2.0459807475   -1.4529076356
C       -0.4955311379   -0.2435795010    1.8814119288
C       -0.7941018872   -2.6966954801    0.5145101080
C        5.0716486402   -1.6099663003   -3.1098305417
N        1.3539687031   -2.7415318906   -1.3790598264
N        2.9771030704   -2.8418931345   -3.1474587942
O        0.5735461207   -2.4576613926    2.8311010511
O        6.0390594610   -1.0594435014   -2.2303816332
S        0.3978321994   -1.7843228350    1.5131680052
H        4.0515925661   -0.8110936337   -0.6751648479
H        1.1676759409   -3.8262553468   -3.1179227429
H        2.4270733215   -0.7666685842    1.1822890050
H        7.4301057339   -1.5182165866   -0.8243950003
H        7.2457499288   -2.7570681622   -2.0979141995
H        6.0144039722   -2.6057053683   -0.8122543464
H       -1.3407104062   -0.4795339849    2.5317211266
H        0.2132179336    0.3989560761    2.4071363029
H       -0.8106764517    0.2239964912    0.9477752638
H       -1.6853266138   -2.7661310751    1.1426738940
H       -0.9755354394   -2.1859537209   -0.4291487143
H       -0.3661473667   -3.6778166897    0.3224389393
H        5.4637030840   -2.4891622516   -3.6401429651
H        4.8651746388   -0.8400011391   -3.8613775757
28   
Generated by ForceBalance from scan.xyz: Frame 12 of 24
C        3.4703378711   -1.4323290428   -1.1870126294
C        1.7428997697   -2.8141736367   -2.6640338978
C        2.1768198825   -1.7336458292   -0.6824844665
C        3.7986719427   -1.8832174543   -2.4512189748
C        1.8071372113   -1.2632966902    0.6155346594
C        6.7147613707   -2.2908503980   -1.4566249982
C       -0.7004765427   -0.3548484587    1.6635123292
C       -0.5010335785   -2.9746806092    0.7159444446
C        5.1442301130   -1.5885567038   -3.0868818127
N        1.3055486901   -2.4335206447   -1.4599901618
N        2.9346255405   -2.5918110588   -3.2184743581
O        0.7860214814   -2.1031034150    2.9604511508
O        6.1511591314   -1.1947608337   -2.1688479580
S        0.4980101257   -1.7238985582    1.5507793240
H        4.1877008329   -0.8661531935   -0.6019152415
H        1.0313142989   -3.3783700624   -3.2679600225
H        2.5245495453   -0.7276610637    1.2288275821
H        7.4762412316   -1.8782519695   -0.7909075579
H        7.1873394879   -3.0061571049   -2.1455791351
H        5.9625677036   -2.8220074037   -0.8577484075
H       -1.5478067410   -0.6683132123    2.2782660503
H       -0.1681494261    0.4683448865    2.1434534311
H       -1.0082934007   -0.0711445562    0.6556664429
H       -1.3167856685   -3.1818923945    1.4126102567
H       -0.8374478019   -2.6058662910   -0.2499650746
H        0.1261057472   -3.8538096514    0.5743073207
H        5.4530718387   -2.4667341746   -3.6711341473
H        5.0234046209   -0.7554713153   -3.7880998065
28   
Generated by ForceBalance from scan.xyz: Frame 13 of 24
C        3.4653678672   -1.3103882890   -1.1068939245
C        1.5750737183   -2.4203303577   -2.6188105796
C        2.1532612717   -1.4924235101   -0.5950758087
C        3.7249100242   -1.7324027501   -2.3969760568
C        1.8265141543   -1.0490235670    0.7207525574
C        6.5946204590   -2.5004615670   -1.4786878691
C       -0.8753018753   -0.3662866143    1.4137727528
C       -0.2843210023   -3.0342984944    0.9471976671
C        5.0857405126   -1.5568581072   -3.0441274438
N        1.1968434998   -2.0492258620   -1.3918133625
N        2.7780849083   -2.3043209425   -3.1810783191
O        0.7480639380   -1.6617409939    3.0793656525
O        6.1427782906   -1.3179476618   -2.1292208717
S        0.4977909988   -1.5435646518    1.6201855866
H        4.2476044789   -0.8557756250   -0.5077812997
H        0.7979358804   -2.8708421644   -3.2372273115
H        2.5788466033   -0.6325303799    1.3812652827
H        7.4064412877   -2.2041479216   -0.8105690023
H        6.9760383763   -3.2296620595   -2.2084078176
H        5.7983125122   -2.9748600849   -0.8891048753
H       -1.7527015089   -0.7278978492    1.9557784215
H       -0.5222005686    0.5761880528    1.8354147844
H       -1.0730454405   -0.2563050807    0.3456055622
H       -1.1051076558   -3.2601285680    1.6314408533
H       -0.6050906898   -2.8423024741   -0.0739799977
H        0.4655409045   -3.8261299424    0.9644468846
H        5.2882659275   -2.4351243315   -3.6731142376
H        5.0466014333   -0.6838230779   -3.7048681650
28   
Generated by ForceBalance from scan.xyz: Frame 14 of 24
C        3.5039882154   -1.2724878067   -1.0397962812
C        1.5117623841   -2.1725352898   -2.5663170731
C        2.1932865160   -1.3948868331   -0.5087161173
C        3.7080378347   -1.6407213267   -2.3559782751
C        1.8955656355   -1.0009965949    0.8271666654
C        6.5388485317   -2.6459054844   -1.5505387125
C       -0.8940312274   -0.5019546746    1.0762958996
C       -0.0897393861   -3.1501417956    1.1046844994
C        5.0637982518   -1.5216605975   -3.0260042323
N        1.1843881337   -1.8484271728   -1.3113648216
N        2.7088368537   -2.1040699250   -3.1478288688
O        0.6111080567   -1.4410476943    3.1087168993
O        6.1534174418   -1.4027933990   -2.1261107662
S        0.5054620597   -1.5123108549    1.6308694215
H        4.3255446097   -0.9004015713   -0.4363774997
H        0.6945646037   -2.5368511378   -3.1898909313
H        2.6669920131   -0.7462924651    1.5449659336
H        7.3822260106   -2.4403116949   -0.8874612515
H        6.8556096557   -3.3577155909   -2.3268765670
H        5.7249616372   -3.0986902969   -0.9678517205
H       -1.8171076944   -0.8885464718    1.5147820268
H       -0.6872128588    0.5095183655    1.4287985167
H       -0.9116553721   -0.5381853388   -0.0148226605
H       -0.9966910204   -3.3470313273    1.6801305243
H       -0.2588215555   -3.1258724366    0.0298695016
H        0.6933131530   -3.8652992218    1.3624821345
H        5.1931723602   -2.3764914882   -3.7046323373
H        5.0696434986   -0.6139074983   -3.6393686415
28   
Generated by ForceBalance from scan.xyz: Frame 15 of 24
C        3.5295693989   -1.3115974796   -0.9742842956
C        1.4937517073   -2.1089387027   -2.5010438734
C        2.2308830390   -1.4573052553   -0.4178315074
C        3.6981780659   -1.6038452147   -2.3136209742
C        1.9706838770   -1.1624420311    0.9474346801
C        6.5438617006   -2.6621102759   -1.6355109230
C       -0.8137299776   -0.5166740292    0.9403162123
C       -0.0966060398   -3.1909514708    1.2742078383
C        5.0375434524   -1.4539300956   -3.0097064274
N        1.1999476097   -1.8632165110   -1.2198784211
N        2.6758307825   -2.0128233898   -3.1072915081
O        0.5138584107   -1.3336233980    3.1515682610
O        6.1496310111   -1.3880928302   -2.1321717003
S        0.5000844361   -1.5221818051    1.6805713976
H        4.3677173972   -0.9771880115   -0.3716308204
H        0.6585895955   -2.4309727475   -3.1241040171
H        2.7306264628   -0.9207806908    1.6798269143
H        7.4037496871   -2.4955873124   -0.9827293361
H        6.8391676819   -3.3307454448   -2.4573591055
H        5.7424425707   -3.1442694020   -1.0592143624
H       -1.7726589114   -0.8273682501    1.3611818090
H       -0.5832987206    0.5142856258    1.2124585023
H       -0.7692735850   -0.6605175143   -0.1404985996
H       -1.0911180680   -3.3015952217    1.7116574242
H       -0.1003392195   -3.2927153988    0.1891833281
H        0.6090615176   -3.8819520092    1.7382005033
H        5.1455453930   -2.2715508947   -3.7362878059
H        5.0330790136   -0.5146899700   -3.5736817047
28   
Generated by ForceBalance from scan.xyz: Frame 16 of 24
C        3.5336681340   -1.3673144465   -0.9360495375
C        1.4974124797   -2.1286082753   -2.4812147962
C        2.2448339757   -1.5708446416   -0.3743090170
C        3.6926005086   -1.5854165093   -2.2905104917
C        1.9987642576   -1.3875737393    1.0117911443
C        6.5657131811   -2.6203820553   -1.7046370658
C       -0.7512245482   -0.4975034493    0.8001066439
C       -0.2098090177   -3.1886439998    1.3906903060
C        5.0196311602   -1.3683428915   -2.9925549859
N        1.2141508051   -1.9608211978   -1.1851623461
N        2.6698280526   -1.9744394726   -3.0939737688
O        0.4196920144   -1.2173457165    3.1253553196
O        6.1413199582   -1.3288199208   -2.1258282651
S        0.4608271704   -1.5284339943    1.6753657511
H        4.3713216852   -1.0457340282   -0.3257451684
H        0.6619363648   -2.4351085409   -3.1116695376
H        2.7238692589   -1.0366224628    1.7344500777
H        7.4302556074   -2.4730906699   -1.0533900446
H        6.8635663664   -3.2367286786   -2.5655149890
H        5.7807308286   -3.1490386838   -1.1469533748
H       -1.7387070791   -0.7090756055    1.2159759683
H       -0.4569153618    0.5333122907    1.0029837181
H       -0.6875422238   -0.7299000539   -0.2632539791
H       -1.2400548394   -3.2102797136    1.7528827943
H       -0.1394427433   -3.4000050195    0.3229568766
H        0.4224645897   -3.8601685068    1.9732667582
H        5.1345695529   -2.1414069661   -3.7653699504
H        4.9892778003   -0.3991627832   -3.5025340211
28   
Generated by ForceBalance from scan.xyz: Frame 17 of 24
C        3.5650541140   -1.4124308499   -0.9273175138
C        1.4989602748   -2.0980082818   -2.4682072128
C        2.2909540796   -1.6557378089   -0.3509100642
C        3.6957340461   -1.5544277136   -2.2955966024
C        2.0779804882   -1.5830522734    1.0539680805
C        6.5826811516   -2.6040389370   -1.8246846148
C       -0.6251318399   -0.4765747160    0.7462872104
C       -0.2497479215   -3.1357120914    1.6112905340
C        5.0066231111   -1.2911383114   -3.0119700878
N        1.2454238375   -2.0097434210   -1.1585890351
N        2.6576643371   -1.9030893683   -3.0965595234
O        0.5187935365   -1.0534238008    3.1220510855
O        6.1458760346   -1.2934321773   -2.1677020199
S        0.5271034252   -1.5039341788    1.7074285115
H        4.4138851059   -1.1188034074   -0.3183665095
H        0.6513591802   -2.3727711516   -3.0970685176
H        2.8070078393   -1.1819201845    1.7480003057
H        7.4603165229   -2.4880119637   -1.1847525779
H        6.8640122562   -3.1725459909   -2.7231822336
H        5.8111912939   -3.1645840361   -1.2795575479
H       -1.5976231357   -0.5402804723    1.2390434393
H       -0.2284177333    0.5383074041    0.8017673230
H       -0.6457149942   -0.8408989779   -0.2798758256
H       -1.2827263339   -3.0589609207    1.9585918174
H       -0.1875872827   -3.4781249382    0.5766268411
H        0.3411063088   -3.7696817428    2.2734284571
H        5.1084848787   -2.0197677426   -3.8285640931
H        4.9615465443   -0.2954631574   -3.4668016564
28   
Generated by ForceBalance from scan.xyz: Frame 18 of 24
C        3.5584909434   -1.4257761223   -0.9321426449
C        1.5054677231   -1.9404553288   -2.5523229133
C        2.2677101863   -1.6743874934   -0.3971972663
C        3.7122264876   -1.4730674378   -2.3050534293
C        2.0411508432   -1.6977760002    1.0091010889
C        6.5526687299   -2.6494696820   -1.8692676553
C       -0.6599664082   -0.6056647833    0.6377848430
C       -0.2974193766   -3.1101157417    1.8792290155
C        5.0437565090   -1.1958861657   -2.9769954675
N        1.2312214254   -1.9462366934   -1.2443876243
N        2.6806991950   -1.7320145723   -3.1462093649
O        0.5577335605   -0.8778638805    3.0436853112
O        6.1666538678   -1.3021275238   -2.1173876432
S        0.5152256559   -1.4995442481    1.6944194622
H        4.4025175743   -1.1974990072   -0.2894321801
H        0.6630657450   -2.1453054818   -3.2139888951
H        2.7976283198   -1.3948252528    1.7244021707
H        7.4225596804   -2.6133973264   -1.2095379639
H        6.8299867255   -3.1577691307   -2.8043803643
H        5.7531868588   -3.2222642021   -1.3800367877
H       -1.5684440090   -0.5006695047    1.2347576771
H       -0.2103253834    0.3683399057    0.4399048613
H       -0.8102941266   -1.1569547725   -0.2877411474
H       -1.3057755483   -2.9647332035    2.2746094372
H       -0.3078704372   -3.6065489728    0.9065605883
H        0.3241434131   -3.6597076389    2.5872989147
H        5.1381067837   -1.8602958826   -3.8474634327
H        5.0385122697   -0.1661983452   -3.3510851354
28   
Generated by ForceBalance from scan.xyz: Frame 19 of 24
C        3.5260255111   -1.4011846427   -0.9868312675
C        1.5220733820   -1.6248573305   -2.7243522228
C        2.1945908632   -1.5807328218   -0.5261445406
C        3.7431430929   -1.3602216120   -2.3511103812
C        1.9328710423   -1.6713411960    0.8744849583
C        6.4522039472   -2.8054367075   -1.8946662516
C       -0.8269996624   -0.8916959270    0.4967324808
C       -0.2261973172   -3.0805667996    2.1577600911
C        5.1240089316   -1.1450879201   -2.9413020238
N        1.1855863809   -1.7041778195   -1.4335878014
N        2.7365197219   -1.4705574719   -3.2522920970
O        0.4842945088   -0.6481810490    2.8714374462
O        6.1914488160   -1.4147905771   -2.0470098539
S        0.4515661919   -1.4735318224    1.6339289430
H        4.3538963629   -1.2893508468   -0.2941958473
H        0.6983268246   -1.7113821728   -3.4338411102
H        2.7294386933   -1.5519052168    1.6010173457
H        7.2899859509   -2.8964925114   -1.1995537221
H        6.7302558796   -3.2614311954   -2.8562007047
H        5.5856162677   -3.3434875189   -1.4868245052
H       -1.7096034395   -0.7490931026    1.1244367559
H       -0.4803468589    0.0571040933    0.0876014158
H       -0.9737472233   -1.6106529075   -0.3056507566
H       -1.1998065735   -2.9258815520    2.6293902195
H       -0.2928376087   -3.7392543299    1.2896743221
H        0.4906559678   -3.4731094409    2.8808688092
H        5.2064266565   -1.7439913454   -3.8592076642
H        5.2213381923   -0.0922417636   -3.2279684444
28   
Generated by ForceBalance from scan.xyz: Frame 20 of 24
C        3.5531509548   -1.3471255344   -0.9832912268
C        1.6121776463   -1.2292906384   -2.7971655122
C        2.1918381586   -1.4108074407   -0.5808979027
C        3.8302634815   -1.2335112854   -2.3322600699
C        1.8844202842   -1.5625819396    0.8076548511
C        6.3378429819   -3.0080146009   -1.9085375894
C       -0.9300455323   -1.2502906414    0.3692902124
C       -0.0065033525   -2.9871272121    2.3781061395
C        5.2503898879   -1.1275138408   -2.8551130978
N        1.2156907736   -1.3540176838   -1.5272904534
N        2.8562992216   -1.1721825657   -3.2727356915
O        0.2696494324   -0.3842119772    2.6465882127
O        6.2421419512   -1.5890586652   -1.9515550916
S        0.4042423162   -1.4066767538    1.5720702631
H        4.3599258638   -1.3781924524   -0.2580927782
H        0.8133573524   -1.1764224482   -3.5377350127
H        2.6848200921   -1.5512277539    1.5410440547
H        7.1314407645   -3.2509523848   -1.1981641562
H        6.6008328011   -3.4151490175   -2.8959190105
H        5.4001800525   -3.4727684605   -1.5741744984
H       -1.8414515404   -1.2435973037    0.9718070752
H       -0.7914667974   -0.3026003846   -0.1473784139
H       -0.8947421291   -2.0660071124   -0.3493559507
H       -0.9555568750   -2.8770863155    2.9079080287
H       -0.0449367160   -3.7754106024    1.6247903790
H        0.8005887876   -3.1795527389    3.0873888013
H        5.3065139984   -1.6543768133   -3.8179851887
H        5.4752324273   -0.0723539955   -3.0453015765
28   
Generated by ForceBalance from scan.xyz: Frame 21 of 24
C        3.5132442620   -1.3643029796   -0.9358446137
C        1.6109073993   -0.8957276630   -2.7350227807
C        2.1478851456   -1.3367977879   -0.5450412343
C        3.8144871594   -1.1506128719   -2.2675992337
C        1.8044287882   -1.5885616463    0.8199119345
C        6.1488189942   -3.1770391005   -2.0063726428
C       -0.9846016490   -1.8000298879    0.2570327679
C        0.1389734956   -2.9978990280    2.5387516876
C        5.2437597340   -1.1266386349   -2.7756034439
N        1.1918557578   -1.0914374581   -1.4814912742
N        2.8604429633   -0.9138362905   -3.2002821260
O       -0.1347131816   -0.3629650867    2.3707094198
O        6.1805011811   -1.7575985975   -1.9164069859
S        0.2815707742   -1.5071368691    1.5111643876
H        4.3054234269   -1.5418095198   -0.2155531706
H        0.8289241733   -0.6977685588   -3.4688269861
H        2.5823203381   -1.6592415586    1.5733991007
H        6.9091566107   -3.5555316427   -1.3192211474
H        6.3861479412   -3.5126110540   -3.0266330692
H        5.1695215245   -3.5848694061   -1.7203876276
H       -1.9013842383   -1.9935763492    0.8188758800
H       -1.0635936196   -0.8925038638   -0.3357745119
H       -0.6982717373   -2.6340834321   -0.3815993774
H       -0.8081933574   -2.9477764885    3.0798542522
H        0.2051359668   -3.8813813077    1.9034499600
H        0.9721472725   -2.9738044297    3.2435638886
H        5.2627830122   -1.5656428687   -3.7829296519
H        5.5647651540   -0.0832308901   -2.8665873062
28   
Generated by ForceBalance from scan.xyz: Frame 22 of 24
C        3.3011251379   -1.8056007035   -1.6724731215
C        3.0946268473   -4.2402427326   -0.6162165410
C        2.1862420324   -2.1448268412   -0.8635359793
C        4.2689942049   -2.7707628343   -1.8832357691
C        1.1783879650   -1.1707336896   -0.5818308047
C        6.4222400193   -0.5386900202   -1.8617659840
C        0.1076974892   -2.5757601150    1.6582892252
C       -0.6148243557    0.0817422464    1.0651241159
C        5.4792010379   -2.5172643920   -2.7622763752
N        2.0974950966   -3.3967970269   -0.3371955956
N        4.1845666763   -4.0134569494   -1.3517165840
O       -1.4922614496   -1.9785718476   -0.3987296095
O        5.7719432730   -1.1446335052   -2.9725631021
S       -0.2408885143   -1.4930556279    0.2498993561
H        3.3980620668   -0.8223932719   -2.1217873372
H        3.0042282971   -5.2388485217   -0.1879230508
H        1.1485337884   -0.2278747713   -1.1167668327
H        6.6095284810    0.5028389770   -2.1332460672
H        7.3811859714   -1.0334741771   -1.6485557234
H        5.8013105274   -0.5689002854   -0.9558572782
H       -0.7516501388   -2.4837739915    2.3263280063
H        0.1980953726   -3.5823512803    1.2585925448
H        1.0395493196   -2.2742465488    2.1357569961
H       -1.5867882472   -0.0247615254    1.5502327000
H        0.1748039486    0.3234486778    1.7763494606
H       -0.6727752645    0.8420458103    0.2842662113
H        6.3390380911   -3.0508543683   -2.3337229797
H        5.2876105047   -2.9454360762   -3.7522122447
28   
Generated by ForceBalance from scan.xyz: Frame 23 of 24
C        3.3480328848   -1.7891648099   -1.6149469883
C        3.0682655511   -4.2789211950   -0.7121289938
C        2.2529376229   -2.1326068901   -0.7842420762
C        4.2604754500   -2.7810983438   -1.9296580172
C        1.2937593833   -1.1457358920   -0.3892810483
C        6.5227893697   -0.6670917553   -1.8343436032
C        0.2299983321   -2.4953697042    1.8802788285
C       -0.7064384042    0.0354856730    1.0305378745
C        5.4462251773   -2.5227948367   -2.8401864487
N        2.1272024160   -3.4110862664   -0.3338642941
N        4.1370079306   -4.0512355198   -1.4789685287
O       -1.2917729428   -2.2294745339   -0.2895590661
O        5.8031816656   -1.1545130281   -2.9608093719
S       -0.1417830075   -1.5560791269    0.3770566151
H        3.4731100918   -0.7832084347   -2.0028610931
H        2.9478449534   -5.2989513288   -0.3467883204
H        1.2554599757   -0.1802569747   -0.8813077062
H        6.7564817065    0.3808089457   -2.0363926106
H        7.4603724199   -1.2248969664   -1.6942970213
H        5.9323869983   -0.7329381861   -0.9101571027
H       -0.7152777663   -2.6301679192    2.4096868090
H        0.6385878691   -3.4443101522    1.5372783253
H        0.9643135584   -1.9505554392    2.4743948954
H       -1.6696618369   -0.1427327373    1.5110817884
H        0.0281435961    0.4386192152    1.7272601921
H       -0.8392174121    0.7027425474    0.1773720710
H        6.2926433919   -3.1300830345   -2.4903490210
H        5.1925924669   -2.8636817117   -3.8498809249
28   
Generated by ForceBalance from scan.xyz: Frame 24 of 24
C        3.3832449785   -1.7262645086   -1.6188785512
C        3.0565617910   -4.2565853006   -0.8480159270
C        2.3042920177   -2.0881124497   -0.7784506996
C        4.2573376315   -2.7247901009   -2.0159791051
C        1.3727527562   -1.1149326523   -0.2865043760
C        6.5819117071   -0.6833702929   -1.8710541092
C        0.1418586480   -2.4857438370    1.8815874092
C       -0.8949977216   -0.0635557452    0.7897285727
C        5.4232832112   -2.4482817038   -2.9465816068
N        2.1562406282   -3.3849342544   -0.3907526843
N        4.1085238779   -4.0138593832   -1.6348563786
O       -1.1044976470   -2.4254974747   -0.4650980257
O        5.8168850056   -1.0858471582   -3.0012814903
S       -0.1155133276   -1.6247464097    0.3092947700
H        3.5250930906   -0.7039171298   -1.9546626306
H        2.9179560204   -5.2919945986   -0.5367629534
H        1.3293135318   -0.1260632385   -0.7309491420
H        6.8397769127    0.3676726453   -2.0205277572
H        7.5066748253   -1.2734792939   -1.7910011282
H        6.0163687693   -0.7860357639   -0.9348252336
H       -0.8393301956   -2.7678066558    2.2683138185
H        0.7349022530   -3.3633952159    1.6243404251
H        0.6863277520   -1.8323808486    2.5641621215
H       -1.8511655315   -0.3180948406    1.2488729074
H       -0.2537387998    0.4930233151    1.4731118675
H       -1.0669422411    0.4949647650   -0.1315380349
H        6.2611142484   -3.0979507615   -2.6575362234
H        5.1303092495   -2.7239282356   -3.9655011780
