29   

C        1.8452232142   -3.6859424559   -0.9187652970
C        0.8848363809   -3.5530001756    0.0701336456
C        5.3029958940    1.3381230000    0.0192985448
C        5.9503956423    1.1948141265   -1.1981195980
C        2.7224257877   -2.6349551304   -1.1765844198
C        0.7894938497   -2.3548797366    0.7718726911
C        4.2202165498    0.5032627106    0.2715061022
C        5.5085082845    0.2260835128   -2.0997744745
C        2.6735102619   -1.4065386280   -0.4628430914
C        1.6469081890   -1.2660116751    0.5149330792
C        3.7831421112   -0.4293819808   -0.6924102924
C        1.1423130281    1.1626295023    0.3374939603
C        0.8134456263   -0.0250762409    2.5284657800
N        4.4623654186   -0.5743732244   -1.8512594762
N        1.3596323513   -0.0422222330    1.1606563088
H        1.9255406353   -4.6088069384   -1.4819011965
H        0.2020436834   -4.3679117722    0.2818320338
H        5.6366663175    2.0624684575    0.7550541521
H        6.8020039096    1.8136565725   -1.4506891842
H        3.4797252295   -2.8086429592   -1.9328698769
H       -0.0035355045   -2.2640887758    1.5010487636
H        3.7372699491    0.5600037666    1.2359227858
H        6.0337553769    0.1127452735   -3.0408761145
H        1.4035716264    0.9801925576   -0.7093324526
H        1.7522275227    1.9917919086    0.7082921210
H        0.0872193381    1.4515871683    0.3702713527
H        1.0861653481    0.9080744441    3.0308978123
H        1.2252086857   -0.8526484901    3.1149298766
H       -0.2776320428   -0.1103897518    2.5037247878
29   

C        1.8976236851   -3.7418112932   -0.8424184941
C        0.8965256937   -3.5797020114    0.1043807346
C        5.3461013167    1.2351628037    0.1032203106
C        5.8501504587    1.2613566713   -1.1895325538
C        2.7821042704   -2.6957707478   -1.0971300755
C        0.7706769415   -2.3610931273    0.7696276399
C        4.3027267395    0.3543306281    0.3634790196
C        5.3070204105    0.4139197714   -2.1583256822
C        2.6941234735   -1.4565919458   -0.4191014052
C        1.6369080243   -1.2790541895    0.5145080442
C        3.7783665851   -0.4592762850   -0.6577745888
C        1.2515751529    1.1741087620    0.2981881507
C        0.7385736974    0.0136092479    2.4668575628
N        4.3001609627   -0.4334765302   -1.9010752518
N        1.3606837703   -0.0375518184    1.1330089427
H        1.9998399628   -4.6803250605   -1.3752895403
H        0.2066989966   -4.3896014472    0.3124815303
H        5.7543211971    1.8691149477    0.8834908514
H        6.6644286172    1.9239958027   -1.4539003112
H        3.5734383121   -2.8626984913   -1.8199681978
H       -0.0472889324   -2.2520618862    1.4680807348
H        3.8962793966    0.2792843740    1.3634585739
H        5.7173598412    0.4393671963   -3.1610136017
H        1.4709542894    0.9544859075   -0.7511008726
H        1.9463215465    1.9428252214    0.6490589570
H        0.2310741777    1.5669964216    0.3429041063
H        0.9866917249    0.9575504900    2.9619513480
H        1.1139773049   -0.8007224722    3.0947465297
H       -0.3497886412   -0.0681354024    2.3828658946
29   

C        1.9323777617   -3.8049250715   -0.7679772713
C        0.8973155447   -3.6078659177    0.1380806310
C        5.4024380805    1.1178169510    0.1568465381
C        5.7538769978    1.3157013197   -1.1719147409
C        2.8303327574   -2.7701030450   -1.0234772864
C        0.7522298568   -2.3679876879    0.7630143607
C        4.4013519334    0.1898625035    0.4187230812
C        5.1030867633    0.5900265515   -2.1741263339
C        2.7177184600   -1.5199625320   -0.3814660989
C        1.6331032205   -1.2986721885    0.5061115081
C        3.7813441371   -0.5063832564   -0.6318730151
C        1.3402396984    1.1654794080    0.2415851618
C        0.6977620725    0.0518292229    2.3999477718
N        4.1380335550   -0.3043151350   -1.9143957323
N        1.3701987242   -0.0390572118    1.0932341905
H        2.0462625599   -4.7590717945   -1.2697902229
H        0.1960647311   -4.4080575499    0.3455594132
H        5.8891518728    1.6618545984    0.9596626386
H        6.5276442417    2.0235355634   -1.4408012742
H        3.6454534312   -2.9395810810   -1.7189838094
H       -0.0872959269   -2.2340784351    1.4309357669
H        4.0853094129   -0.0099378208    1.4348402914
H        5.3904633389    0.7549000618   -3.2059381269
H        1.5196042375    0.9134763762   -0.8080590125
H        2.0979888024    1.8834942469    0.5682769550
H        0.3538950502    1.6364920264    0.2962236354
H        0.9386866928    1.0045315822    2.8817271892
H        1.0388054165   -0.7511554141    3.0611332430
H       -0.3874908307   -0.0187200660    2.2757048050
29   

C        1.9521187207   -3.8358071317   -0.6827135681
C        0.8841137031   -3.5979699436    0.1761818410
C        5.5059613673    0.9887176877    0.1974812690
C        5.6985271899    1.3633759011   -1.1261354706
C        2.8682999550   -2.8171749097   -0.9402863349
C        0.7262871667   -2.3357131668    0.7540141769
C        4.5333408902    0.0287053418    0.4511352979
C        4.9220548092    0.7770832307   -2.1306922315
C        2.7372984111   -1.5498919047   -0.3437834735
C        1.6264035381   -1.2835485427    0.4945676865
C        3.7936252875   -0.5290809385   -0.6023128492
C        1.4093181343    1.1837246606    0.1769343194
C        0.6682224519    0.1254377847    2.3322039500
N        3.9851715762   -0.1488208023   -1.8783368177
N        1.3749869318   -0.0066500333    1.0475494903
H        2.0744293320   -4.8074378992   -1.1476374728
H        0.1678892369   -4.3847227253    0.3839137564
H        6.0875960959    1.4268895482    1.0019175401
H        6.4417619518    2.1053173953   -1.3891542892
H        3.7055525409   -3.0062493625   -1.6034740293
H       -0.1341892749   -2.1717679246    1.3877685719
H        4.3247565643   -0.2994041233    1.4615737155
H        5.0829522538    1.0826801763   -3.1578816094
H        1.5346181702    0.9010265965   -0.8726694146
H        2.2278383792    1.8479483826    0.4686614044
H        0.4627007003    1.7278860010    0.2505616573
H        0.9116932742    1.0850627988    2.7987778921
H        0.9779009446   -0.6671413058    3.0208149373
H       -0.4141759250    0.0693566824    2.1793535360
29   

C        1.9991514211   -3.8552329636   -0.6173065957
C        0.8983973528   -3.5981278356    0.1942954846
C        5.6666834744    0.8111548953    0.1971944607
C        5.6939050861    1.3925562866   -1.0640869783
C        2.9155261018   -2.8370061359   -0.8771660628
C        0.7113022543   -2.3192674014    0.7259605973
C        4.6976418685   -0.1580435314    0.4294025618
C        4.7636760256    0.9938578664   -2.0292311562
C        2.7479762081   -1.5525159347   -0.3314225761
C        1.6123390347   -1.2690391655    0.4639839547
C        3.8007642451   -0.5217667704   -0.5846063487
C        1.3735860147    1.1850484317    0.0906189600
C        0.6378869784    0.1680099257    2.2684200896
N        3.8312553497    0.0582504442   -1.7972424269
N        1.3486094848    0.0160024312    0.9884329476
H        2.1456802387   -4.8411343448   -1.0436011690
H        0.1814220590   -4.3838818247    0.4032384008
H        6.3695526009    1.1015113103    0.9712149854
H        6.4252951190    2.1526033872   -1.3078842237
H        3.7775865529   -3.0387080978   -1.5035232042
H       -0.1688765569   -2.1410941342    1.3281632280
H        4.6138633278   -0.6417797919    1.3940970419
H        4.7959912731    1.4598596483   -3.0070748708
H        1.4187984779    0.8718117811   -0.9566788309
H        2.2334572320    1.8226578701    0.3146929772
H        0.4546593437    1.7675137177    0.2082165493
H        0.8758246217    1.1371366000    2.7179228349
H        0.9498867912   -0.6104786022    2.9718926803
H       -0.4438227415    0.1036421058    2.1142293311
29   

C        2.0277115050   -3.8399206122   -0.5268828062
C        0.8937516174   -3.5635986386    0.2308342773
C        5.8732923700    0.5715718354    0.1201009107
C        5.7549460722    1.3688908531   -1.0109119227
C        2.9431821653   -2.8220562310   -0.7921198340
C        0.6772197815   -2.2681606315    0.7079520413
C        4.8744631260   -0.3696669670    0.3415083724
C        4.6598669023    1.1994908022   -1.8636903590
C        2.7384016235   -1.5168157545   -0.3114322746
C        1.5784643829   -1.2201666268    0.4409067150
C        3.8010539589   -0.4901630182   -0.5520688742
C        1.2019757322    1.1923467436   -0.0190347389
C        0.6259404662    0.2381517053    2.2327677506
N        3.7004877330    0.2889410562   -1.6428202385
N        1.2929231990    0.0708944545    0.9317301140
H        2.2007945039   -4.8406453071   -0.9061327704
H        0.1766884544   -4.3482293567    0.4436866521
H        6.7087949541    0.6782241709    0.8042078980
H        6.4999940083    2.1203089746   -1.2395363842
H        3.8320682519   -3.0408688629   -1.3734631995
H       -0.2223960373   -2.0736301973    1.2756868541
H        4.9052936767   -1.0180958715    1.2075354740
H        4.5817338529    1.8296011264   -2.7418793367
H        1.2106401786    0.8287052243   -1.0509466362
H        2.0331032722    1.8878148714    0.1275988961
H        0.2577224985    1.7273696567    0.1208440675
H        0.8772596883    1.2136929381    2.6605177390
H        0.9627735807   -0.5309794214    2.9350546316
H       -0.4602110874    0.1687681994    2.1166399343
29   

C        2.0655837081   -3.8299075941   -0.4288451694
C        0.8907956572   -3.5332584288    0.2546273373
C        6.0386794312    0.3698760877   -0.0107284607
C        5.8141100852    1.3436557172   -0.9746672649
C        2.9872171193   -2.8155104774   -0.6864010344
C        0.6443294921   -2.2226330445    0.6703159050
C        5.0198560463   -0.5489546585    0.2140198654
C        4.6004175795    1.3608105271   -1.6681903130
C        2.7485589061   -1.4906342462   -0.2763564969
C        1.5531230807   -1.1799265895    0.4123991245
C        3.8190005471   -0.4725845785   -0.5076524980
C        0.9829091257    1.1656678054   -0.1352991440
C        0.6352854455    0.2978676861    2.1948571284
N        3.6235733801    0.4697050989   -1.4463316166
N        1.2369795653    0.1153469580    0.8648404076
H        2.2650690323   -4.8437161894   -0.7569870212
H        0.1677162500   -4.3142396363    0.4604448626
H        6.9693338753    0.3273422660    0.5456046742
H        6.5674443718    2.0889532671   -1.1959364529
H        3.9059803599   -3.0532483472   -1.2110617302
H       -0.2810139301   -2.0086971702    1.1879625689
H        5.1345152657   -1.3299432242    0.9544430857
H        4.4411158395    2.1253294954   -2.4195037217
H        1.0380499375    0.7588827183   -1.1497648417
H        1.7117034688    1.9746861446   -0.0327097334
H       -0.0247851319    1.5722431805   -0.0059972982
H        0.9103171254    1.2769711841    2.5990488565
H        1.0023408434   -0.4662074065    2.8874648584
H       -0.4553911338    0.2293129105    2.1331661211
29   

C        0.8204678700   -2.5556806874   -2.1783462624
C       -0.1010282157   -2.6036774751   -1.1392838541
C        5.8823535342    0.0032284998   -1.0072330788
C        5.6896692207    1.3660165758   -0.8181643376
C        1.9867187051   -1.8081045598   -2.0286313484
C        0.1595979840   -1.9205233408    0.0504596919
C        4.7517995691   -0.8062006671   -1.0042051598
C        4.3948340476    1.8642428524   -0.6404735992
C        2.2570034697   -1.0996067603   -0.8417958165
C        1.3395936364   -1.1733106599    0.2405221439
C        3.4803988700   -0.2467082653   -0.8034165243
C        0.4460942535   -0.1260532617    2.3380884764
C        2.9044939141   -0.6173287456    2.1362458130
N        3.3098066464    1.0782095624   -0.6385770791
N        1.5704318513   -0.5963330294    1.5128819002
H        0.6273347441   -3.0861593837   -3.1038430224
H       -1.0143652740   -3.1774809519   -1.2472575540
H        6.8739484119   -0.4127608973   -1.1534190485
H        6.5297110047    2.0489472513   -0.8109987215
H        2.6838949107   -1.7505878832   -2.8570770563
H       -0.5617823647   -2.0070311750    0.8510440279
H        4.8386648818   -1.8752948981   -1.1487683395
H        4.2611090564    2.9304018184   -0.4998394921
H       -0.3372161622    0.3039976085    1.7057998558
H        0.7826502203    0.6559722551    3.0258336848
H        0.0293519681   -0.9542222329    2.9197750128
H        3.3401369757    0.3859301393    2.1431680255
H        3.5755606819   -1.3001958117    1.6077353204
H        2.8267750409   -0.9813125637    3.1652608991
29   

C        0.9611668129   -2.6128876427   -2.1172832321
C       -0.0102822073   -2.6103509558   -1.1255574016
C        5.9462028965    0.0614462868   -1.1272119873
C        5.7670957583    1.3805232887   -0.7321557821
C        2.1302638899   -1.8772435729   -1.9371131341
C        0.2040965236   -1.8910181258    0.0506736867
C        4.8262023336   -0.7627141224   -1.1259352913
C        4.4956215357    1.8225948620   -0.3555406178
C        2.3613215605   -1.1280225333   -0.7636400196
C        1.3849277220   -1.1540145169    0.2749929348
C        3.5733740465   -0.2628370353   -0.7303870079
C        0.4083676114   -0.0627562594    2.3171794338
C        2.8683034602   -0.5756915729    2.2299597145
N        3.4211507261    1.0226625513   -0.3550344380
N        1.5615120279   -0.5593024609    1.5494464434
H        0.8031420498   -3.1707405376   -3.0333277520
H       -0.9270655957   -3.1732347879   -1.2589001065
H        6.9206230675   -0.3114191761   -1.4257934354
H        6.5998910254    2.0720591623   -0.7139077238
H        2.8549540888   -1.8571910564   -2.7430765606
H       -0.5564921998   -1.9429245673    0.8171563179
H        4.9141601084   -1.8001095561   -1.4209036622
H        4.3713309489    2.8553169632   -0.0516027401
H       -0.3489724661    0.3516974372    1.6443009119
H        0.7221133529    0.7372858290    2.9949225119
H       -0.0328646343   -0.8731758173    2.9058318959
H        3.3096057975    0.4253677743    2.2385618884
H        3.5570219659   -1.2704681160    1.7402412339
H        2.7460427885   -0.9154093191    3.2629885977
29   

C        1.0242146925   -2.7125384505   -2.0523547759
C        0.0181866244   -2.6469572894   -1.1005575414
C        5.9337162787    0.1223499836   -1.2986083693
C        5.7821676860    1.3842220582   -0.7424019249
C        2.1987703219   -1.9877360265   -1.8652193805
C        0.2047793865   -1.8774247594    0.0462713238
C        4.8281772027   -0.7211891055   -1.2815601581
C        4.5522941152    1.7503276213   -0.1915577179
C        2.4117910602   -1.1865116099   -0.7181655487
C        1.3902951325   -1.1512207640    0.2807733150
C        3.6066856804   -0.2966030312   -0.7211571715
C        0.3676230043    0.0320403432    2.2495966048
C        2.7948121310   -0.6251076727    2.2995851531
N        3.4927001344    0.9315758963   -0.1771672848
N        1.5305690573   -0.5334774139    1.5479537817
H        0.8872140211   -3.3075273997   -2.9482264338
H       -0.9038328839   -3.1994261242   -1.2412306853
H        6.8785014203   -0.1950753358   -1.7278841318
H        6.6052358041    2.0873588467   -0.7277744155
H        2.9318733228   -2.0158374573   -2.6622106371
H       -0.5822854241   -1.8834299762    0.7873523393
H        4.9173293746   -1.7186850694   -1.6896139126
H        4.4484711592    2.7376680044    0.2428411787
H       -0.3479044848    0.4458159847    1.5321241322
H        0.6844902627    0.8456216723    2.9094515297
H       -0.1251501256   -0.7397039088    2.8493205045
H        3.2543563725    0.3629783518    2.3981257313
H        3.4996556122   -1.2986008488    1.8029480461
H        2.6058530399   -1.0276524411    3.2993735495
29   

C        1.0751968399   -2.7985034127   -1.9570082610
C        0.0433866176   -2.6735618926   -1.0428384561
C        5.8975174982    0.2212734516   -1.4557996102
C        5.7994423681    1.4059686984   -0.7440192312
C        2.2529186909   -2.0782119207   -1.7736044329
C        0.2086660940   -1.8505321841    0.0668467293
C        4.8055832161   -0.6398680062   -1.4232639721
C        4.6357236997    1.6775905040   -0.0253983884
C        2.4550287211   -1.2195321700   -0.6608442599
C        1.3962359170   -1.1277420378    0.3014249714
C        3.6355797977   -0.3075149943   -0.7014551603
C        0.3299903168    0.1644690751    2.1773460914
C        2.7006413743   -0.6503445944    2.3889597549
N        3.5903264434    0.8419674762    0.0017265140
N        1.4978831330   -0.4777441819    1.5550223646
H        0.9552825525   -3.4349109195   -2.8265246319
H       -0.8816377658   -3.2211674284   -1.1828684559
H        6.7948841229   -0.0279375999   -2.0128170801
H        6.6148218809    2.1180346255   -0.7330245015
H        2.9844272324   -2.1634532511   -2.5655504924
H       -0.5984047992   -1.8125696584    0.7851784598
H        4.8884077667   -1.5801562959   -1.9476363282
H        4.5727355600    2.6026216916    0.5355446268
H       -0.3392765203    0.5669699348    1.4105913798
H        0.6513877034    0.9973137228    2.8103266835
H       -0.2167796151   -0.5581615784    2.7913850942
H        3.1805326980    0.3161111497    2.5710973648
H        3.4217768280   -1.3159227023    1.9048478902
H        2.4286384092   -1.0977127377    3.3497060131
29   

C        1.1245076563   -2.8972432535   -1.8586665850
C        0.0825582575   -2.7387730855   -0.9648155353
C        5.8006964645    0.3909854295   -1.6592767864
C        5.8307639413    1.4145394047   -0.7290114265
C        2.2945540997   -2.1589674132   -1.6989524566
C        0.2334138659   -1.8663624749    0.1056963631
C        4.7151615628   -0.4789829511   -1.6275947537
C        4.7932510689    1.5245924269    0.1924906926
C        2.4829041409   -1.2337196012   -0.6328496113
C        1.4110289171   -1.1211462592    0.3171637431
C        3.6679133062   -0.3207191881   -0.6821049408
C        0.3025004613    0.3176525918    2.0512811373
C        2.5593212953   -0.7047257913    2.4913645747
N        3.7549422636    0.6810903444    0.2162149382
N        1.4684918748   -0.4203819169    1.5427628086
H        1.0221334800   -3.5818159571   -2.6931813618
H       -0.8358854251   -3.3016620554   -1.0864683527
H        6.5965845505    0.2706565574   -2.3870998469
H        6.6475705193    2.1246419561   -0.7065049799
H        3.0282636851   -2.3175678604   -2.4737208080
H       -0.5779233699   -1.8029673143    0.8177844355
H        4.7259604732   -1.2746460850   -2.3534585229
H        4.8257707612    2.3251661950    0.9220870674
H       -0.3254594908    0.6602337710    1.2229424096
H        0.6310923429    1.1989947651    2.6104272986
H       -0.2921501371   -0.3227906743    2.7104512876
H        3.0632573709    0.2230044963    2.7795943257
H        3.2983636111   -1.3774933737    2.0450805077
H        2.1610384090   -1.1888358826    3.3880582079
29   

C        1.2185383199   -2.9899739812   -1.7888563970
C        0.2062773544   -2.8682818668   -0.8540214833
C        5.6132455029    0.6394932261   -1.9216758042
C        5.9287289242    1.3395600879   -0.7703903490
C        2.3506686868   -2.1840670866   -1.6920659091
C        0.3494851580   -1.9577444774    0.1867602267
C        4.5030851523   -0.1978871141   -1.8817856321
C        5.1296858383    1.1841470994    0.3597565575
C        2.5151548490   -1.2122444079   -0.6666934756
C        1.4848189032   -1.1357076651    0.3225339213
C        3.7300446921   -0.3439813381   -0.7017562832
C        0.3314570708    0.5094967803    1.8001266879
C        2.4075631204   -0.6805068850    2.5713587178
N        4.0663923503    0.3719312448    0.3884766887
N        1.4994771855   -0.3203789713    1.4698541915
H        1.1311694666   -3.7129847182   -2.5920501895
H       -0.6803281691   -3.4885366130   -0.9203430031
H        6.2026408622    0.7498923773   -2.8261054882
H        6.7780054683    2.0101459135   -0.7402895885
H        3.1072409974   -2.3569970639   -2.4440594033
H       -0.4344725769   -1.9046432145    0.9304630204
H        4.2417659567   -0.7024313169   -2.7985045791
H        5.3775624584    1.7427581164    1.2546192624
H       -0.2640610276    0.7082596854    0.9034904518
H        0.6584811780    1.4700799654    2.2093868234
H       -0.2992678410    0.0004066682    2.5358767182
H        2.9351941149    0.2079222243    2.9315968077
H        3.1508463267   -1.4111364016    2.2365890593
H        1.8430981675   -1.1245392536    3.3968128881
29   

C        1.2679288202   -3.0448629683   -1.7394479450
C        0.2713158362   -2.9560985753   -0.7796430473
C        5.4248362793    0.8461539297   -1.9373900299
C        5.9274891529    1.2956900844   -0.7266361266
C        2.3735076974   -2.1993130415   -1.6668901085
C        0.3965651696   -2.0283024294    0.2516267643
C        4.3101930016    0.0154988661   -1.8983442240
C        5.3041981662    0.9073236354    0.4596578228
C        2.5180303704   -1.2332908567   -0.6401466605
C        1.5030560572   -1.1656709845    0.3552134321
C        3.7231937656   -0.3583729363   -0.6691720454
C        0.3249215267    0.5796332756    1.6708797080
C        2.3093789438   -0.6316405571    2.6227200226
N        4.2338275198    0.1031775503    0.4870872721
N        1.4955301731   -0.2812276259    1.4473158157
H        1.1894902261   -3.7726124728   -2.5392205225
H       -0.5931292192   -3.6086666086   -0.8249768550
H        5.8766314996    1.1392844368   -2.8794353743
H        6.7906579478    1.9479729337   -0.6902294576
H        3.1386988162   -2.3211963627   -2.4235668037
H       -0.3788763289   -1.9817546762    1.0048838155
H        3.8801042728   -0.3179507214   -2.8321722413
H        5.7024029675    1.2693235557    1.4002236826
H       -0.2276988418    0.7249187301    0.7372113016
H        0.6458698325    1.5614867438    2.0316335202
H       -0.3453566419    0.1259719302    2.4078791635
H        2.8649675481    0.2439757447    2.9716778678
H        3.0273168615   -1.4200048683    2.3748754706
H        1.6692644105   -0.9992606077    3.4304450913
29   

C        1.3276539603   -3.1265608897   -1.6684374357
C        0.3213925756   -3.0288393175   -0.7159204114
C        5.2665341523    1.0029323739   -1.9004759282
C        5.9152769034    1.2700690930   -0.7036368633
C        2.4215731203   -2.2641604010   -1.6068046154
C        0.4208954694   -2.0707812845    0.2929780275
C        4.1583415534    0.1646054986   -1.8514543063
C        5.4403757744    0.6975752468    0.4786816623
C        2.5402204025   -1.2863573189   -0.5942492660
C        1.5156377166   -1.1928646973    0.3818408038
C        3.7219663395   -0.3814695332   -0.6292212033
C        0.3147717401    0.5972577017    1.6075825049
C        2.3034728270   -0.5494121084    2.6253320214
N        4.3741048070   -0.1126235608    0.5161220552
N        1.4987064659   -0.2557628304    1.4282812135
H        1.2637269185   -3.8710585437   -2.4539188641
H       -0.5335027504   -3.6943660755   -0.7530583490
H        5.6059930563    1.4351119548   -2.8361267380
H        6.7822371794    1.9176710737   -0.6742813424
H        3.1991943083   -2.3655444895   -2.3552088102
H       -0.3640995560   -2.0099665801    1.0351997146
H        3.6115845381   -0.0564791881   -2.7583786451
H        5.9566446613    0.9146839046    1.4063776150
H       -0.2156181583    0.7195226429    0.6578429667
H        0.6176701326    1.5891269791    1.9565390653
H       -0.3689362075    0.1517258125    2.3371118920
H        2.8951126473    0.3265086779    2.9074350468
H        2.9860711444   -1.3845427980    2.4383608998
H        1.6526371431   -0.8295745703    3.4592130384
29   

C        1.3641929258   -3.1954182149   -1.6151533323
C        0.3261938192   -3.0600918068   -0.6998194008
C        5.1287156294    1.1360097712   -1.8149923766
C        5.9125744774    1.2292857985   -0.6732062937
C        2.4617547787   -2.3379216926   -1.5440612358
C        0.3962934633   -2.0691189292    0.2811588380
C        4.0227782702    0.2952331768   -1.7604499555
C        5.5693172863    0.4880543968    0.4608969061
C        2.5493869017   -1.3370278212   -0.5557260853
C        1.4956787001   -1.1978159683    0.3785327543
C        3.7216987453   -0.4154451732   -0.5864324380
C        0.2632204670    0.5977926717    1.5701378811
C        2.3254983082   -0.4271249194    2.5694321402
N        4.5030828741   -0.3228282442    0.5039589801
N        1.4718341946   -0.2199657173    1.3880401368
H        1.3202982925   -3.9625348852   -2.3799490158
H       -0.5316334086   -3.7213086156   -0.7452819666
H        5.3666816053    1.6977640529   -2.7123433591
H        6.7859571173    1.8684900825   -0.6504594156
H        3.2643424374   -2.4505334181   -2.2644259718
H       -0.4137654118   -1.9805475340    0.9928275645
H        3.3730332139    0.1895182328   -2.6193574494
H        6.1924780731    0.5688438764    1.3437648537
H       -0.2718133501    0.7047236678    0.6211494311
H        0.5375473915    1.5986115808    1.9173936519
H       -0.4049735391    0.1335497623    2.3023341512
H        2.9558964481    0.4502345890    2.7407509438
H        2.9688001827   -1.3026109537    2.4360446705
H        1.7075266294   -0.6050041111    3.4548387270
29   

C        1.4039618034   -3.2642755211   -1.5760965295
C        0.3264963554   -3.0796402988   -0.7156740282
C        4.9992165503    1.2815312071   -1.6908811818
C        5.9146696124    1.1988236786   -0.6502449737
C        2.5073332745   -2.4157360514   -1.4898751021
C        0.3635830674   -2.0508558878    0.2284985916
C        3.8977449869    0.4349975622   -1.6372236789
C        5.6995923109    0.2863021299    0.3867600366
C        2.5583084555   -1.3783464323   -0.5403298445
C        1.4700021642   -1.1892996477    0.3425913224
C        3.7321844934   -0.4523649052   -0.5630165356
C        0.1926967351    0.5833173474    1.5378448183
C        2.3834242931   -0.2471887009    2.4406829999
N        4.6351801115   -0.5277637429    0.4298529536
N        1.4344398477   -0.1740773832    1.3172646817
H        1.3852529983   -4.0609998361   -2.3110485851
H       -0.5363543382   -3.7332379431   -0.7743239572
H        5.1356592847    1.9781897902   -2.5115450113
H        6.7927704349    1.8317265291   -0.6326149833
H        3.3407486512   -2.5574310116   -2.1690285160
H       -0.4772850476   -1.9315606294    0.8983675994
H        3.1480827963    0.4547432218   -2.4175629742
H        6.4244595944    0.2315438559    1.1904405969
H       -0.3670775529    0.6786895030    0.6019983998
H        0.4272441997    1.5916378954    1.8927140768
H       -0.4352522053    0.0794519060    2.2793809773
H        3.0370637871    0.6296575991    2.4457973295
H        2.9962885819   -1.1514424060    2.3746895792
H        1.8400648891   -0.2952499177    3.3893144399
29   

C        1.4309652751   -3.3494777039   -1.5145591498
C        0.3202466167   -3.1137593003   -0.7101068703
C        4.8668683121    1.4334949863   -1.4676819054
C        5.9028795956    1.1661446882   -0.5821367854
C        2.5372174924   -2.5052341823   -1.4251361212
C        0.3284614972   -2.0421827663    0.1867498980
C        3.7700533645    0.5798041497   -1.4389823345
C        5.8049734057    0.0742619464    0.2858596668
C        2.5532663036   -1.4205297239   -0.5308131465
C        1.4388224997   -1.1851560542    0.3065367206
C        3.7324648196   -0.4984879779   -0.5440002479
C        0.1293507089    0.5682514083    1.5127256370
C        2.4365208591   -0.0602528090    2.2845377521
N        4.7432194702   -0.7445978075    0.3071445598
N        1.3947135916   -0.1339502462    1.2457648897
H        1.4358048579   -4.1820117923   -2.2088936489
H       -0.5452160644   -3.7635009821   -0.7728597735
H        4.9092500340    2.2737307531   -2.1529924744
H        6.7847759213    1.7934765317   -0.5555125880
H        3.3981834475   -2.6833569979   -2.0599289646
H       -0.5377737820   -1.8927734830    0.8166717769
H        2.9274140625    0.7365842533   -2.0998802381
H        6.6216046165   -0.1207958453    0.9710050253
H       -0.4582956219    0.6567030596    0.5934423272
H        0.3315678648    1.5798882019    1.8781236908
H       -0.4559592106    0.0281891415    2.2635616609
H        3.0791010029    0.8096215364    2.1221689103
H        3.0478353223   -0.9676917307    2.2869320490
H        1.9752843520    0.0142440576    3.2740531915
29   

C        1.4812521339   -3.4271056645   -1.4971660328
C        0.3422097037   -3.1545381415   -0.7456833811
C        4.7923000181    1.5556401093   -1.1829021486
C        5.9258304678    1.1182126118   -0.5095725460
C        2.5857938896   -2.5812709982   -1.4043530631
C        0.3217874082   -2.0480461332    0.1077675329
C        3.6942679689    0.7033639352   -1.1991560395
C        5.9184359945   -0.1322512770    0.1165780095
C        2.5690204850   -1.4542970481   -0.5644046727
C        1.4305544742   -1.1887652107    0.2332051341
C        3.7544909867   -0.5434834537   -0.5614832982
C        0.0903205835    0.5489694361    1.4393259881
C        2.4607430540    0.0688824224    2.1241979052
N        4.8546742695   -0.9487047579    0.0968684957
N        1.3722041071   -0.1126551600    1.1467090957
H        1.5101305368   -4.2900076522   -2.1527317880
H       -0.5219980741   -3.8055454494   -0.8124127780
H        4.7618324587    2.5227191692   -1.6740917785
H        6.8141534393    1.7351651192   -0.4617054361
H        3.4710715846   -2.7889613292   -1.9953727020
H       -0.5656083140   -1.8785064914    0.7018178994
H        2.7755606538    0.9882555386   -1.6956141060
H        6.8095045145   -0.4571266255    0.6408256532
H       -0.5154892219    0.6240410001    0.5306893821
H        0.2666179602    1.5648961079    1.8063213991
H       -0.4640889305   -0.0119659791    2.1982697297
H        3.0448266153    0.9624640716    1.8865275956
H        3.1222258872   -0.8024639949    2.1378855818
H        2.0464495641    0.1685999342    3.1321350591
29   

C        1.5072460987   -3.4754030226   -1.4355062266
C        0.3465820828   -3.1716469929   -0.7316041301
C        4.7624618088    1.6086906868   -0.9503005356
C        5.9623647353    1.0600953750   -0.5159430276
C        2.6103103368   -2.6280801183   -1.3425161743
C        0.3043814940   -2.0345085470    0.0790739544
C        3.6503845663    0.7749936599   -0.9633970242
C        6.0051504173   -0.2786146329   -0.1137101752
C        2.5725415070   -1.4650597727   -0.5519680131
C        1.4116272999   -1.1728724273    0.2061564846
C        3.7603927920   -0.5630052642   -0.5562964852
C        0.0469805932    0.5747548178    1.3740189599
C        2.4195143905    0.1379833168    2.0773595990
N        4.9277628051   -1.0771936326   -0.1290380705
N        1.3371425315   -0.0787038650    1.0987540649
H        1.5546463284   -4.3635995190   -2.0552166065
H       -0.5167760119   -3.8236568842   -0.7994692668
H        4.6928442976    2.6448407350   -1.2648767847
H        6.8647705873    1.6573127338   -0.4835974668
H        3.5119774774   -2.8613247220   -1.8985312434
H       -0.5992370111   -1.8458690545    0.6419529232
H        2.6823665865    1.1426635828   -1.2794875129
H        6.9486036723   -0.6902762620    0.2251509674
H       -0.5544682697    0.6304631022    0.4610994035
H        0.2109491128    1.5976723359    1.7270132834
H       -0.5060874656    0.0197083070    2.1383047328
H        2.9407634130    1.0769243676    1.8700824940
H        3.1411145003   -0.6842734775    2.0556201109
H        2.0060523422    0.1736736879    3.0899749596
29   

C        1.5888516627   -3.5243918921   -1.3927983097
C        0.3970825735   -3.2066380007   -0.7526322231
C        4.7872719149    1.6269806903   -0.7861015191
C        6.0203853853    1.0231803155   -0.5781511278
C        2.6832741270   -2.6695528722   -1.2746198384
C        0.3163171405   -2.0486411503    0.0228445737
C        3.6652622959    0.8069716817   -0.7623589549
C        6.0861936378   -0.3559651049   -0.3584639234
C        2.6133393498   -1.4811213530   -0.5192632552
C        1.4142511182   -1.1789612701    0.1763363394
C        3.7949077585   -0.5726548544   -0.5330450299
C       -0.0048871427    0.5728188177    1.2729742712
C        2.3312565040    0.1372268973    2.0880127568
N        4.9995270539   -1.1416617424   -0.3372071845
N        1.2978747025   -0.0784532937    1.0571315266
H        1.6673433706   -4.4282993110   -1.9860694754
H       -0.4603902111   -3.8638640738   -0.8415255833
H        4.7004829719    2.6940948416   -0.9624945464
H        6.9317555306    1.6074573127   -0.5865767901
H        3.6036350111   -2.9174209689   -1.7926617884
H       -0.6117684412   -1.8514213570    0.5411265031
H        2.6764199899    1.2187273623   -0.9202967065
H        7.0564379754   -0.8118519668   -0.1997157131
H       -0.5701511681    0.6148688939    0.3365074958
H        0.1410035549    1.6004569442    1.6200682031
H       -0.5856777072    0.0244119108    2.0213848397
H        2.8098836915    1.1112626336    1.9515146790
H        3.0976488669   -0.6429452642    2.0503956763
H        1.8788900981    0.0972872437    3.0837464730
29   

C        1.6298255817   -3.5472801421   -1.3071590564
C        0.4174632260   -3.2092297664   -0.7233936663
C        4.8332638569    1.6366266039   -0.6564600769
C        6.0670054615    1.0015560530   -0.6803200658
C        2.7221848027   -2.6928292806   -1.1728786600
C        0.3149709739   -2.0310646193    0.0147142620
C        3.7030427647    0.8320038414   -0.5703258924
C        6.1253966660   -0.3932090617   -0.6260032067
C        2.6407901632   -1.4782233734   -0.4509408423
C        1.4099696900   -1.1605062222    0.1859902477
C        3.8225811650   -0.5678858160   -0.4941455884
C       -0.0449975746    0.6099493863    1.2047928969
C        2.2379047316    0.1412469911    2.1437566243
N        5.0313623952   -1.1640240481   -0.5426286053
N        1.2600257161   -0.0562191681    1.0567090237
H        1.7265669481   -4.4660594795   -1.8743406284
H       -0.4390395288   -3.8656346192   -0.8265327524
H        4.7510428210    2.7171506315   -0.7118522265
H        6.9837357499    1.5733064870   -0.7491406293
H        3.6478819129   -2.9686145363   -1.6664348209
H       -0.6304782074   -1.8192866929    0.4943686956
H        2.7186975733    1.2812452968   -0.5765111353
H        7.0957261662   -0.8749215947   -0.6547062321
H       -0.5708527650    0.6372238003    0.2450834655
H        0.0953655929    1.6431406201    1.5372326950
H       -0.6613930308    0.0812025727    1.9387933206
H        2.6805121470    1.1397251373    2.0818070850
H        3.0395153205   -0.6021009634    2.0968092664
H        1.7444861520    0.0282440830    3.1140932444
29   

C        1.6739354211   -3.5814767172   -1.2154307437
C        0.4449273083   -3.2189527017   -0.6899607979
C        4.9048736477    1.6314225029   -0.5341877784
C        6.1078253169    0.9917778028   -0.7900618453
C        2.7662410440   -2.7290748523   -1.0712111900
C        0.3271881462   -2.0187358569    0.0048145396
C        3.7742362356    0.8355657824   -0.3883044579
C        6.1342123178   -0.3984757472   -0.9046639777
C        2.6785006656   -1.4835039619   -0.3918546848
C        1.4210212341   -1.1488034358    0.1879897535
C        3.8612798843   -0.5702685624   -0.4669861187
C       -0.0577084733    0.6535355325    1.1119531707
C        2.1410575744    0.1150886019    2.2050958893
N        5.0405885380   -1.1601828051   -0.7607882054
N        1.2385900781   -0.0429819789    1.0487959425
H        1.7848610152   -4.5180879231   -1.7499458221
H       -0.4120133856   -3.8731962473   -0.8027406030
H        4.8429638789    2.7125542653   -0.4658446198
H        7.0219828541    1.5576813215   -0.9168056375
H        3.6933315395   -3.0440217203   -1.5369960079
H       -0.6321101248   -1.7889657775    0.4473033763
H        2.8182302257    1.3171956189   -0.2447151798
H        7.0779016856   -0.8850437475   -1.1216951584
H       -0.5367984377    0.6595771734    0.1276741244
H        0.0886366070    1.6939065202    1.4182149325
H       -0.7200431597    0.1605840984    1.8307353209
H        2.5423203950    1.1323859239    2.2381851390
H        2.9786315282   -0.5871773204    2.1534269488
H        1.5969445169   -0.0856177505    3.1332375250
29   

C        1.7759619281   -3.6107623078   -1.0068551783
C        0.8435593462   -3.4940553500    0.0081143340
C        5.2567073938    1.4652705767   -0.0953268280
C        6.0568917964    1.1373291366   -1.1762932380
C        2.6686678451   -2.5695434484   -1.2501785237
C        0.7900190986   -2.3181157927    0.7475285764
C        4.1396353402    0.6720679935    0.1438488345
C        5.7265953601    0.0322360735   -1.9572725393
C        2.6706005399   -1.3604149045   -0.4942375382
C        1.6638153730   -1.2388202536    0.5075315017
C        3.8096242397   -0.4083300550   -0.7081950655
C        0.9819328820    1.1337898184    0.3878057895
C        0.9658893149   -0.0611520435    2.6018848739
N        4.6464128405   -0.7251895002   -1.7228922329
N        1.3816632626   -0.0378771086    1.1890074477
H        1.8237533886   -4.5149182726   -1.6030868809
H        0.1491032667   -4.3016974858    0.2094438303
H        5.5009937996    2.2995815156    0.5539748313
H        6.9415733437    1.7157963462   -1.4100525845
H        3.3941006802   -2.7467626607   -2.0358375552
H        0.0141328749   -2.2308347811    1.4956736516
H        3.5654740547    0.8959080059    1.0266424012
H        6.3702595780   -0.2285630617   -2.7891729656
H        1.3217080453    1.0358236100   -0.6479234028
H        1.4189700902    2.0458157847    0.8056427994
H       -0.1083770367    1.2286205177    0.3811619002
H        1.3142371950    0.8425681400    3.1111433120
H        1.4014150143   -0.9244412946    3.1151921002
H       -0.1248906710   -0.1162207359    2.6764422177
