20   
Generated by ForceBalance from scan.xyz: Frame 1 of 24
C       -1.2769058737   -1.7780465524    0.8757560997
C       -1.6387445119   -1.4351141490    2.3039826925
C        0.5506558711    2.6227304688   -1.2141975261
C        2.4322814498   -0.4789633310    0.7245471693
N       -0.7481186444   -0.7565839576    0.0734673416
O       -1.4026738156   -2.8995647966    0.4080886921
O       -1.2970348037    1.6894382556    1.1414840713
O        0.2232323755    1.2292359109   -0.9831106769
P       -0.2882841253    0.8191574392    0.4956137371
S        1.4226873426    0.6931535480    1.7169108024
H       -0.8682685045   -1.8539762657    2.9590643049
H       -2.5829268438   -1.9286908616    2.5419083713
H       -1.7166119285   -0.3649987562    2.4956036110
H        0.8265656420    2.6937139117   -2.2658485151
H        1.3936209306    2.9210712431   -0.5839982978
H       -0.3173516168    3.2503679247   -1.0028820367
H        3.3739256847   -0.6045859819    1.2627794620
H        2.6347186932   -0.0741745443   -0.2683840273
H        1.9338330068   -1.4463916729    0.6419157098
H       -0.5269850483   -1.0600840437   -0.8728347093
20   
Generated by ForceBalance from scan.xyz: Frame 2 of 24
C       -1.1400629294   -1.9808208340    0.7987293231
C       -1.5929691721   -1.6018534083    2.1903693643
C        0.1573315930    2.5210144365   -1.4645081903
C        2.3773063996   -0.1438957308    0.7339477923
N       -0.6913115410   -0.9441371454   -0.0342860605
O       -1.1167794589   -3.1300126540    0.3857194596
O       -1.6542734809    1.4411239645    0.8579834679
O        0.0292583022    1.1079460607   -1.1655175602
P       -0.4935113751    0.7026530742    0.3105210795
S        1.1501754383    0.9059927020    1.6111667489
H       -0.7204948906   -1.6078825812    2.8529888596
H       -2.2971102973   -2.3572165811    2.5401562927
H       -2.0383275410   -0.6066226519    2.2353699467
H        0.4777540398    2.5778861418   -2.5043270251
H        0.9097733224    2.9770190318   -0.8144032972
H       -0.8051039798    3.0193649078   -1.3326587824
H        3.2960134363   -0.0988920950    1.3222775521
H        2.5708895646    0.2392770698   -0.2692395478
H        2.0343096906   -1.1787172454    0.6813053490
H       -0.3955268821   -1.2613811276   -0.9551877212
20   
Generated by ForceBalance from scan.xyz: Frame 3 of 24
C       -1.1233574253   -2.0019475166    0.7968871786
C       -1.6021914731   -1.6030057442    2.1729771473
C        0.1683382418    2.5039314018   -1.4582818250
C        2.4416873911   -0.1497130529    0.6856869187
N       -0.6355902242   -0.9736844682   -0.0272197324
O       -1.1199841813   -3.1499824869    0.3808839354
O       -1.6021952831    1.3946005695    0.8916716854
O        0.0471327688    1.0888265147   -1.1662782521
P       -0.4441673503    0.6725449137    0.3172533804
S        1.2240623009    0.8922809904    1.5852217933
H       -0.7391738914   -1.3529009986    2.8001499382
H       -2.1301471114   -2.4486094654    2.6129955911
H       -2.2426720283   -0.7189588855    2.1373278210
H        0.4679897611    2.5680809630   -2.5038520781
H        0.9330124902    2.9563798058   -0.8200955272
H       -0.7918241454    3.0003859799   -1.3043223859
H        3.3732844545   -0.0921303930    1.2522318108
H        2.6082991876    0.2298386212   -0.3237553306
H        2.1078561653   -1.1881381465    0.6470927806
H       -0.3323321943   -1.2957787545   -0.9438451085
20   
Generated by ForceBalance from scan.xyz: Frame 4 of 24
C       -1.1874072578   -1.9527456234    0.8901659863
C       -1.6564225533   -1.5493832968    2.2682132537
C        0.1410645491    2.5445247282   -1.3463376374
C        2.4337006972   -0.0858344832    0.8000372582
N       -0.6400518531   -0.9370136504    0.0878467952
O       -1.2570894122   -3.0886637104    0.4479506589
O       -1.6232842884    1.4248883908    1.0035840006
O        0.0319666883    1.1289272726   -1.0522496152
P       -0.4593090304    0.7106997502    0.4312445516
S        1.2062648030    0.9442918344    1.6996002638
H       -0.8341376728   -1.1151752694    2.8459585368
H       -2.0342203549   -2.4363234889    2.7758833521
H       -2.4380466268   -0.7879919302    2.1992209715
H        0.4442324655    2.6097060893   -2.3908495948
H        0.8989572991    3.0054578769   -0.7061179876
H       -0.8242714587    3.0323002003   -1.1969856050
H        3.3635654309   -0.0229299591    1.3688772809
H        2.5992489961    0.2981313843   -0.2078694094
H        2.1066159649   -1.1261739170    0.7575769106
H       -0.3742822142   -1.2505622362   -0.8432302724
20   
Generated by ForceBalance from scan.xyz: Frame 5 of 24
C       -1.2643048306   -1.9373011323    0.8371445835
C       -1.7020195817   -1.5485029262    2.2300924803
C        0.1513626458    2.5403591262   -1.3643957814
C        2.4244714323   -0.1073526669    0.7790031551
N       -0.6489751373   -0.9392730298    0.0626731627
O       -1.4304458130   -3.0468977648    0.3561125091
O       -1.6236361064    1.4274925291    0.9824555611
O        0.0317939278    1.1254320426   -1.0721617731
P       -0.4625550392    0.7078794379    0.4109778292
S        1.2030101475    0.9278448175    1.6807182283
H       -0.9345251744   -0.9774234953    2.7590188568
H       -1.9356021037   -2.4600277292    2.7804589921
H       -2.5959189276   -0.9210245621    2.1680405556
H        0.4518495292    2.6047309788   -2.4097536229
H        0.9149147797    2.9940630768   -0.7257568256
H       -0.8094933284    3.0358934762   -1.2114745665
H        3.3547083785   -0.0511935249    1.3479520982
H        2.5919504705    0.2780987751   -0.2280007207
H        2.0899095083   -1.1450845228    0.7336618568
H       -0.4389455269   -1.2353791902   -0.8883741771
20   
Generated by ForceBalance from scan.xyz: Frame 6 of 24
C       -1.0934041444   -1.9851839248    0.9578082004
C       -1.5373361538   -1.6076019481    2.3523651657
C        0.1650449616    2.5030292132   -1.3177829025
C        2.5323794916   -0.0617124736    0.8363279628
N       -0.5273954621   -0.9745554671    0.1648587442
O       -1.2317288056   -3.1038354002    0.4885041330
O       -1.5481124412    1.3811999081    1.0668579696
O        0.0885688784    1.0897801392   -1.0039675851
P       -0.3773119113    0.6813566898    0.4911648508
S        1.2977622686    0.9588145786    1.7366894913
H       -0.9286966125   -0.8255849871    2.8087187056
H       -1.5148959480   -2.5076735669    2.9685585446
H       -2.5705203684   -1.2508334023    2.3020698976
H        0.4495383222    2.5605389048   -2.3680072727
H        0.9243405174    2.9866854551   -0.6962645372
H       -0.8069514743    2.9742469010   -1.1584949369
H        3.4674849509    0.0245827112    1.3934044020
H        2.6793082268    0.3122998339   -0.1781673288
H        2.2216768462   -1.1074651870    0.8105012465
H       -0.3211620193   -1.2746715879   -0.7858218335
20   
Generated by ForceBalance from scan.xyz: Frame 7 of 24
C       -1.0564905720   -1.9865972772    0.9828297157
C       -1.5075405835   -1.6313740130    2.3819631096
C        0.1863905066    2.5050250942   -1.3087126553
C        2.5409647481   -0.0770126581    0.8405442388
N       -0.5284796929   -0.9625969030    0.1832639330
O       -1.1560509647   -3.1127437511    0.5205393973
O       -1.5243503090    1.4058827184    1.0869796287
O        0.0972380306    1.0932424279   -0.9917072367
P       -0.3636506937    0.6929189215    0.5071465360
S        1.3197614160    0.9570129691    1.7438310101
H       -1.1214912033   -0.6839951927    2.7562393758
H       -1.2132021442   -2.4456118153    3.0471026992
H       -2.6005818025   -1.5819470714    2.3801579069
H        0.4662381958    2.5576414702   -2.3604319240
H        0.9535834311    2.9821917581   -0.6918747812
H       -0.7800086655    2.9863052573   -1.1455246128
H        3.4803530803    0.0057936626    1.3909187623
H        2.6840291894    0.2906533195   -0.1768353533
H        2.2234535897   -1.1208822899    0.8224223608
H       -0.3078751468   -1.2658359989   -0.7632621343
20   
Generated by ForceBalance from scan.xyz: Frame 8 of 24
C       -1.1096568476   -1.9460885979    0.9972485401
C       -1.6165108386   -1.6038685355    2.3811530983
C        0.1851231223    2.5674222381   -1.2436687691
C        2.4186641010   -0.1484517331    0.8915536789
N       -0.6693003338   -0.8981272585    0.1770097012
O       -1.0795834118   -3.0902888342    0.5700775084
O       -1.5868655493    1.4920800636    1.1105535274
O        0.0469714651    1.1538179171   -0.9523742299
P       -0.4473084973    0.7442494873    0.5327506064
S        1.2275777613    0.9184183971    1.7973754355
H       -1.5714329065   -0.5448747129    2.6312005129
H       -1.0438046859   -2.1840827998    3.1088048909
H       -2.6578431090   -1.9322291295    2.4413916393
H        0.4793277381    2.6288177558   -2.2909623559
H        0.9597811151    3.0087647886   -0.6097111353
H       -0.7672174202    3.0766789521   -1.0831298608
H        3.3520866028   -0.1148106176    1.4570199389
H        2.5927210210    0.2316776488   -0.1164001860
H        2.0610136395   -1.1786548819    0.8490522090
H       -0.3778223289   -1.2077157058   -0.7480914076
20   
Generated by ForceBalance from scan.xyz: Frame 9 of 24
C       -1.1023701068   -1.9438120044    0.9858598626
C       -1.5660312053   -1.5945241905    2.3830491448
C        0.2167767707    2.5707670284   -1.2398877518
C        2.4129874183   -0.1756706611    0.8934461852
N       -0.6779143987   -0.8950602809    0.1573893685
O       -1.0652167219   -3.0898283814    0.5644214953
O       -1.5793658412    1.4985861996    1.0970428502
O        0.0643731385    1.1568798887   -0.9568444685
P       -0.4429219216    0.7433469654    0.5224029311
S        1.2244011329    0.8935153063    1.8000531241
H       -1.7651965843   -0.5328796356    2.5288702861
H       -0.7999405987   -1.9191461278    3.0931866762
H       -2.4775727038   -2.1615168562    2.5839626919
H        0.5189215709    2.6347700340   -2.2847543371
H        0.9907250630    3.0020617830   -0.5982189719
H       -0.7322525738    3.0873783448   -1.0834301422
H        3.3428425262   -0.1542165979    1.4653570590
H        2.5970335278    0.2109391070   -0.1102583884
H        2.0477656721   -1.2027706314    0.8399191961
H       -0.3821355819   -1.2051299830   -0.7661344594
20   
Generated by ForceBalance from scan.xyz: Frame 10 of 24
C       -1.2239825698   -1.9147884716    0.9750618048
C       -1.6522867440   -1.5577780549    2.3807213481
C        0.2093745105    2.5927924864   -1.1918607850
C        2.3455670299   -0.1943417085    0.9433066762
N       -0.7487381677   -0.8732586065    0.1636511570
O       -1.2430592630   -3.0534929560    0.5336163876
O       -1.6295662914    1.5239926753    1.1104839989
O        0.0388389618    1.1781732356   -0.9226633491
P       -0.4954645886    0.7580270762    0.5451321205
S        1.1551588569    0.8750599092    1.8471558938
H       -2.0357735635   -0.5393128510    2.4611978348
H       -0.7898864580   -1.6551334094    3.0481833104
H       -2.4188273839   -2.2683305511    2.6925430229
H        0.5300563334    2.6619864644   -2.2308532993
H        0.9762271425    3.0117640210   -0.5337191749
H       -0.7372528572    3.1172296480   -1.0474833021
H        3.2654399970   -0.1948085749    1.5315352256
H        2.5516504246    0.2063140788   -0.0505038591
H        1.9675401740   -1.2152973464    0.8658918224
H       -0.4741434599   -1.1765755391   -0.7684643887
20   
Generated by ForceBalance from scan.xyz: Frame 11 of 24
C       -1.2091423670   -1.9375620589    0.9699288461
C       -1.6616155472   -1.5587522909    2.3608661667
C        0.2238468664    2.5742669257   -1.1867024470
C        2.4076951297   -0.2012282275    0.8925913632
N       -0.6962727024   -0.9054358702    0.1665891371
O       -1.2445720689   -3.0748880795    0.5268394664
O       -1.5817977270    1.4732760076    1.1404529381
O        0.0540660088    1.1579911128   -0.9264799165
P       -0.4494193526    0.7253974826    0.5483273494
S        1.2264425496    0.8596646738    1.8181328743
H       -2.2475216604   -0.6369220569    2.3590954081
H       -0.7852173811   -1.3908686228    2.9963295631
H       -2.2484135776   -2.3824075177    2.7670169491
H        0.5240607316    2.6516654755   -2.2312154733
H        1.0046537001    2.9853639679   -0.5401263283
H       -0.7182893920    3.1001075282   -1.0194749425
H        3.3412651396   -0.1878188452    1.4586698440
H        2.5859101902    0.1957624270   -0.1081210266
H        2.0395121196   -1.2268302511    0.8305239812
H       -0.4068415860   -1.2151211463   -0.7587702048
20   
Generated by ForceBalance from scan.xyz: Frame 12 of 24
C       -1.2610656799   -1.8939211386    1.0751688691
C       -1.7147491884   -1.5073662409    2.4631653784
C        0.1970915503    2.6104826989   -1.0670672909
C        2.4108598145   -0.1366613943    1.0079244320
N       -0.6896926140   -0.8761592003    0.2925001208
O       -1.3607062323   -3.0183193969    0.6098716347
O       -1.5966565251    1.4930211890    1.2657369317
O        0.0386013243    1.1932430535   -0.8054775946
P       -0.4575567719    0.7572997965    0.6711738320
S        1.2206414996    0.9123138112    1.9352796497
H       -2.4600877220   -0.7090543802    2.4163290440
H       -0.8727359437   -1.1271132432    3.0508709210
H       -2.1306123162   -2.3902823541    2.9475169748
H        0.4952594743    2.6894459299   -2.1120649058
H        0.9755227338    3.0283364688   -0.4219580138
H       -0.7488908988    3.1291716224   -0.8990494711
H        3.3462581891   -0.1112107482    1.5705747454
H        2.5805943797    0.2604794988    0.0058075959
H        2.0532494646   -1.1661133447    0.9492753800
H       -0.4304378265   -1.1783517270   -0.6441436296
20   
Generated by ForceBalance from scan.xyz: Frame 13 of 24
C       -1.1785173488   -1.9291460279    1.1462512998
C       -1.5992127304   -1.5544229987    2.5480924025
C        0.2032070796    2.5725589593   -1.0283596708
C        2.5053746897   -0.0917254192    1.0635260331
N       -0.5747324139   -0.9219758159    0.3745027064
O       -1.3498677719   -3.0339113326    0.6559244326
O       -1.5424983548    1.4346924425    1.3276420363
O        0.0900764825    1.1546695534   -0.7482176640
P       -0.3869259090    0.7221392234    0.7363624957
S        1.2925143727    0.9323966446    1.9891870588
H       -2.4921489425   -0.9240099829    2.5062245638
H       -0.8244636240   -0.9834888480    3.0672381804
H       -1.8120628490   -2.4705365653    3.0987227408
H        0.4923344960    2.6474983919   -2.0762158416
H        0.9725076791    3.0221300640   -0.3937042272
H       -0.7570981642    3.0643040156   -0.8604722350
H        3.4405873179   -0.0433063746    1.6249769086
H        2.6640741258    0.3064952120    0.0600903767
H        2.1697539302   -1.1286062420    1.0078758959
H       -0.3810237439   -1.2068718908   -0.5833942793
20   
Generated by ForceBalance from scan.xyz: Frame 14 of 24
C       -1.2045071416   -1.8971311633    1.1380428173
C       -1.6312001889   -1.5413033620    2.5439762256
C        0.2234009237    2.5933560863   -1.0296975044
C        2.4933543177   -0.1112258562    1.0576321179
N       -0.5985498239   -0.8897047927    0.3710606111
O       -1.3906779656   -2.9955895620    0.6383829029
O       -1.5284022755    1.4817273718    1.3307018118
O        0.0937705877    1.1769513924   -0.7493705819
P       -0.3857579519    0.7512651255    0.7366854419
S        1.3001794328    0.9343242247    1.9847777973
H       -2.6568232579   -1.1619363707    2.5133408567
H       -1.0079128325   -0.7719966664    3.0029867791
H       -1.5985376911   -2.4478730839    3.1494910455
H        0.5096300377    2.6649748274   -2.0785819719
H        1.0005677181    3.0331624836   -0.3977717144
H       -0.7300779103    3.0969762503   -0.8581376595
H        3.4308584252   -0.0770199608    1.6163005225
H        2.6556117654    0.2827139447    0.0530718916
H        2.1408233209   -1.1425961949    1.0049111024
H       -0.4094955938   -1.1722735524   -0.5885762874
20   
Generated by ForceBalance from scan.xyz: Frame 15 of 24
C       -1.1483268485   -1.8796588553    1.0578617754
C       -1.5710638426   -1.5283505272    2.4671879597
C        0.3208534509    2.5766187788   -1.1746718249
C        2.5344533945   -0.1909120700    0.8936537496
N       -0.5930081607   -0.8666838363    0.2631992357
O       -1.2912334257   -2.9965844941    0.5843715264
O       -1.4243851012    1.5425051018    1.2247931313
O        0.1453539362    1.1674752928   -0.8827229689
P       -0.3193741366    0.7685323615    0.6151888792
S        1.3937011486    0.9020467032    1.8320904257
H       -2.6641720871   -1.4983546158    2.4930934811
H       -1.1969530923   -0.5695368006    2.8244163708
H       -1.2350871533   -2.3273274893    3.1311177290
H        0.5888018544    2.6317099092   -2.2293509023
H        1.1257347265    2.9913359790   -0.5607266015
H       -0.6101753823    3.1155635130   -0.9878677294
H        3.4849233598   -0.1763476426    1.4308860618
H        2.6860918843    0.1842780426   -0.1197480825
H        2.1522258522   -1.2125936435    0.8636555151
H       -0.3878302037   -1.1690732010   -0.6870828612
20   
Generated by ForceBalance from scan.xyz: Frame 16 of 24
C       -1.1710195352   -1.8555640189    1.0591774100
C       -1.6315949761   -1.5085847503    2.4579675162
C        0.3301499054    2.6219572618   -1.1248445291
C        2.4355222250   -0.2546470316    0.9289779759
N       -0.6986264552   -0.8171088945    0.2444878651
O       -1.1962051641   -2.9949083154    0.6189551854
O       -1.4685674965    1.6023810560    1.2342344110
O        0.1164997771    1.2130297700   -0.8573732527
P       -0.3803215419    0.8033358407    0.6267177622
S        1.3176212866    0.8589315097    1.8712458142
H       -2.6593554440   -1.8659168642    2.5640345475
H       -1.6017661788   -0.4457706190    2.6939824479
H       -1.0168121926   -2.0667148020    3.1689504290
H        0.6139852926    2.6865008376   -2.1748051522
H        1.1363851334    3.0072006896   -0.4937024133
H       -0.5899749658    3.1805220536   -0.9420151986
H        3.3768188171   -0.2833907832    1.4815147485
H        2.6171038620    0.1344267857   -0.0742335369
H        2.0209738163   -1.2626471254    0.8726871483
H       -0.4305589816   -1.1275142853   -0.6873990709
20   
Generated by ForceBalance from scan.xyz: Frame 17 of 24
C       -1.2188726885   -1.8433638326    1.0312707264
C       -1.6467958712   -1.4932741145    2.4392987707
C        0.3451481628    2.6333964069   -1.1099074129
C        2.3882081549   -0.2890768854    0.9420373023
N       -0.7472395967   -0.8035672657    0.2167908044
O       -1.2465754537   -2.9820178229    0.5897540502
O       -1.4940260274    1.6175554658    1.2178122707
O        0.1117274578    1.2248318724   -0.8569994421
P       -0.4095539409    0.8085301151    0.6165247707
S        1.2726921061    0.8278473034    1.8833540560
H       -2.5442058302   -2.0721821000    2.6673491970
H       -1.8440597797   -0.4321771625    2.5909998728
H       -0.8621606536   -1.8198866040    3.1288327269
H        0.6442489358    2.7030084189   -2.1552911312
H        1.1469340969    3.0041373898   -0.4645896189
H       -0.5709638428    3.2010191849   -0.9351324791
H        3.3218140694   -0.3368704957    1.5061887797
H        2.5878302137    0.1092851419   -0.0540618812
H        1.9616760832   -1.2909925284    0.8680268240
H       -0.4738911959   -1.1117629773   -0.7142275722
20   
Generated by ForceBalance from scan.xyz: Frame 18 of 24
C       -1.1010830160   -1.8986209342    1.0278807604
C       -1.4750530581   -1.5325239769    2.4462341698
C        0.3985352639    2.5785768025   -1.1570873737
C        2.5242371033   -0.2812755728    0.8837283523
N       -0.6136060367   -0.8684500386    0.2087929185
O       -1.1720721423   -3.0334075138    0.5817914763
O       -1.3935874178    1.5440776677    1.2012936190
O        0.1919637511    1.1679751058   -0.8923805285
P       -0.3014932511    0.7522059070    0.5907472784
S        1.3969208043    0.8158173322    1.8340408028
H       -2.2183455077   -2.2504665145    2.7950613933
H       -1.8579443947   -0.5148922056    2.5373991376
H       -0.5864673372   -1.6279247897    3.0794272169
H        0.6842617657    2.6462599060   -2.2063268079
H        1.2013036258    2.9671428956   -0.5235941086
H       -0.5249899822    3.1318128348   -0.9752897689
H        3.4642698037   -0.3100037402    1.4384363328
H        2.7057355008    0.1184381948   -0.1152675514
H        2.1155877323   -1.2910633376    0.8159232576
H       -0.3747582988   -1.1752581689   -0.7319451167
20   
Generated by ForceBalance from scan.xyz: Frame 19 of 24
C       -1.1404889116   -1.9199132439    0.9491114780
C       -1.5332111873   -1.5359810056    2.3570826675
C        0.4078902031    2.5519308725   -1.2084040222
C        2.5439464383   -0.3343896398    0.7732846779
N       -0.6093946663   -0.9021744412    0.1395965328
O       -1.2417890318   -3.0495443166    0.4965121474
O       -1.3620637354    1.5019019856    1.1627301468
O        0.1978699856    1.1397976424   -0.9547965482
P       -0.2810435922    0.7123909364    0.5300073687
S        1.4360651859    0.7598478526    1.7493802935
H       -2.1213019390   -2.3500848044    2.7808258176
H       -2.0952079830   -0.5999498517    2.3820710934
H       -0.6305068706   -1.3998886512    2.9625317636
H        0.6827914421    2.6284281546   -2.2599378091
H        1.2189499113    2.9313445266   -0.5799170149
H       -0.5112819696    3.1073199620   -1.0116776411
H        3.4916662178   -0.3731834998    1.3140989839
H        2.7128721459    0.0734415654   -0.2246110086
H        2.1286192768   -1.3412952844    0.7029531069
H       -0.3723301755   -1.2100640928   -0.8011227642
20   
Generated by ForceBalance from scan.xyz: Frame 20 of 24
C       -1.2778635254   -1.8602003238    0.9124017022
C       -1.6648224180   -1.4731709025    2.3203632660
C        0.4062836905    2.5834744573   -1.1903980128
C        2.4962526360   -0.3446681463    0.7638220565
N       -0.6673031615   -0.8650256972    0.1305091666
O       -1.4623113914   -2.9668678135    0.4306762102
O       -1.3853653355    1.5385189438    1.1748358697
O        0.1659428691    1.1740080199   -0.9499080270
P       -0.3156004749    0.7413485919    0.5326403047
S        1.4049618076    0.7586506108    1.7480651722
H       -2.1256197005   -2.3360439447    2.8000930199
H       -2.3557640696   -0.6260463001    2.3106734636
H       -0.7828235008   -1.1618233279    2.8896485118
H        0.6793529187    2.6643719572   -2.2420885102
H        1.2274426835    2.9388633222   -0.5609965294
H       -0.4998574826    3.1570364163   -0.9852971146
H        3.4458596830   -0.3958679208    1.3002999211
H        2.6655157204    0.0646959153   -0.2334151327
H        2.0684109466   -1.3461348250    0.6920616494
H       -0.4557570356   -1.1640928675   -0.8190334160
20   
Generated by ForceBalance from scan.xyz: Frame 21 of 24
C       -1.1841042091   -1.8996935971    0.9891196723
C       -1.5493378247   -1.5210838369    2.4054410261
C        0.4106928198    2.5514054103   -1.1445552399
C        2.5969607713   -0.3021207174    0.8159256336
N       -0.5551596172   -0.9148355513    0.2096819412
O       -1.4206198375   -2.9898926435    0.4931132223
O       -1.3326298999    1.4758768332    1.2433318844
O        0.2130139518    1.1378682683   -0.8903999513
P       -0.2455303967    0.7039118698    0.5995307329
S        1.4828431944    0.7771909038    1.8009479095
H       -1.8267585018   -2.4260358647    2.9451167920
H       -2.3932461528   -0.8247374519    2.3875133614
H       -0.7286799252   -1.0096741240    2.9159457246
H        0.6724881754    2.6311220571   -2.1992200825
H        1.2265708538    2.9355522934   -0.5252804369
H       -0.5097911033    3.1005642132   -0.9364451291
H        3.5523008372   -0.3213983762    1.3442903522
H        2.7453779649    0.1041686830   -0.1858615677
H        2.1966872509   -1.3155627299    0.7555621539
H       -0.3862131711   -1.2004848037   -0.7526055943
20   
Generated by ForceBalance from scan.xyz: Frame 22 of 24
C       -1.2723539673   -1.8296211483    0.9494878869
C       -1.6388384938   -1.4689337558    2.3705365588
C        0.4380469367    2.5885745911   -1.1628466927
C        2.5479781373   -0.3301648229    0.8008700716
N       -0.6126508776   -0.8538023558    0.1856312064
O       -1.5507627872   -2.9013304645    0.4348150887
O       -1.3308343283    1.5572659968    1.2222297874
O        0.2069199600    1.1799666747   -0.9097732430
P       -0.2638531133    0.7567386678    0.5796853571
S        1.4639742507    0.7819621753    1.7829696342
H       -1.7201590919   -2.3885371760    2.9504309673
H       -2.6126487367   -0.9690527089    2.3569553264
H       -0.9336723845   -0.7799727555    2.8387115636
H        0.6991010106    2.6632616010   -2.2180632499
H        1.2645757321    2.9519207011   -0.5451349674
H       -0.4682620703    3.1597349280   -0.9517179234
H        3.5006805469   -0.3785716118    1.3321073641
H        2.7114798388    0.0720058552   -0.2002299986
H        2.1170183200   -1.3307654929    0.7387091894
H       -0.4662513564   -1.1303333964   -0.7831218296
20   
Generated by ForceBalance from scan.xyz: Frame 23 of 24
C       -1.2217413464   -1.8368276129    0.8701860302
C       -1.5861893617   -1.4908987712    2.2966682069
C        0.5045337298    2.5629906453   -1.2848932185
C        2.5760410815   -0.3945113650    0.6613375958
N       -0.6027973425   -0.8492869308    0.0903920096
O       -1.4692511985   -2.9227644772    0.3688024011
O       -1.2525755906    1.5824534567    1.1298998575
O        0.2425587027    1.1613940437   -1.0232300724
P       -0.2141980647    0.7549346187    0.4752173558
S        1.5310720263    0.7458800775    1.6532618638
H       -1.3719899582   -2.3573441392    2.9247640625
H       -2.6644742366   -1.3066660156    2.3283808955
H       -1.0881088924   -0.6043547316    2.6878298233
H        0.7518458391    2.6276860262   -2.3440627702
H        1.3486666671    2.9079396312   -0.6805752858
H       -0.3843059907    3.1569693431   -1.0627319184
H        3.5366153377   -0.4573949708    1.1766709074
H        2.7306029727   -0.0031054541   -0.3454646529
H        2.1256753699   -1.3873725568    0.6142306244
H       -0.4484259974   -1.1369671116   -0.8739546489
20   
Generated by ForceBalance from scan.xyz: Frame 24 of 24
C       -1.2243748963   -1.7984589890    0.9021421508
C       -1.6297836509   -1.4528366995    2.3182406101
C        0.5287712959    2.6113082996   -1.2308987650
C        2.4897272645   -0.4447749830    0.7023162213
N       -0.6934280691   -0.7793173275    0.0992865859
O       -1.3478341182   -2.9210017145    0.4360646502
O       -1.2689192222    1.6640632554    1.1594390945
O        0.2269224537    1.2145629069   -0.9854940372
P       -0.2549686284    0.8071732841    0.5042153029
S        1.4776965935    0.7218808263    1.6983794842
H       -1.0844955290   -2.1115631983    2.9988742324
H       -2.6944034029   -1.6790408007    2.4225891180
H       -1.4621211364   -0.4134041851    2.5967164767
H        0.7866411371    2.6795792183   -2.2873019487
H        1.3769169030    2.9270854720   -0.6163204237
H       -0.3455067278    3.2267696362   -1.0097522464
H        3.4421310966   -0.5489150058    1.2260041688
H        2.6689813112   -0.0478505709   -0.2982362354
H        2.0057157701   -1.4209012962    0.6392182141
H       -0.4734512381   -1.0863034887   -0.8462356062
