18   

C        4.6331481257    1.3459741910    0.7538162502
C        5.8139886837    1.1162763523    0.0578388529
C        3.5008874128    0.5758692131    0.4819786556
C        5.8525164805    0.1176223800   -0.9129896732
C        3.5148812075   -0.4449182471   -0.4880718959
C        4.7243020787   -0.6614904162   -1.1988686708
C        2.2836726517   -1.2595635898   -0.7409971179
C        0.9255107472   -0.7892324330   -0.2311660239
O        2.3102354744   -2.3131859061   -1.3628699842
O        4.8394471082   -1.6001026621   -2.1827868867
H        4.5933082855    2.1217198897    1.5103725623
H        6.6964228263    1.7112947183    0.2677137367
H        2.6063413860    0.7855735761    1.0569125720
H        6.7762116121   -0.0470223764   -1.4536554841
H        0.7671064992    0.2586550591   -0.4993103731
H        0.8758481324   -0.9036621095    0.8547470426
H        0.1296897579   -1.3873997871   -0.6844366693
H        5.7506937743   -1.6457443864   -2.5119322671
18   

C        4.6560704303    1.3455034847    0.7980830676
C        5.8087025865    1.1619699639    0.0407650885
C        3.5350944513    0.5453601376    0.5677991315
C        5.8294856314    0.1814669206   -0.9507751651
C        3.5390812337   -0.4554416673   -0.4197620245
C        4.7108250358   -0.6248353197   -1.1942015189
C        2.3294741382   -1.3189268933   -0.6179731070
C        0.9406420211   -0.7750179798   -0.3057505639
O        2.4123600260   -2.4711546229   -1.0185709282
O        4.7846190231   -1.5399350941   -2.2039846863
H        4.6309729540    2.1060808436    1.5704819181
H        6.6827843741    1.7791505834    0.2191771597
H        2.6587931971    0.7057264903    1.1858814195
H        6.7286116222    0.0543312605   -1.5407101910
H        0.8585840877    0.2596132287   -0.6492876580
H        0.7583767532   -0.8184351226    0.7710378124
H        0.1829366062   -1.3739794487   -0.8190144625
H        5.6888791639   -1.5978186737   -2.5507822864
18   

C        4.7236036014    1.2900847589    0.8579568496
C        5.8289556694    1.1404099530    0.0240719794
C        3.5968832321    0.4855203685    0.6732469358
C        5.7968087471    0.1891182292   -0.9967474282
C        3.5526894013   -0.4797736068   -0.3443829146
C        4.6707182599   -0.6193242196   -1.1921603485
C        2.3474367075   -1.3659700565   -0.4960315700
C        0.9502042521   -0.7750425945   -0.3657245761
O        2.4567350047   -2.5681761037   -0.6810882383
O        4.6741094152   -1.5111325394   -2.2253063510
H        4.7408003484    2.0260575268    1.6540167851
H        6.7074910064    1.7604812085    0.1669844301
H        2.7546148185    0.6093596030    1.3450227240
H        6.6581051670    0.0867283145   -1.6450373385
H        0.8937792450    0.1644893365   -0.9219149955
H        0.7197616907   -0.5888346897    0.6860563994
H        0.2119852369   -1.4706780859   -0.7747830507
H        5.5609772711   -1.5831834254   -2.6129192024
18   

C        4.7769590515    1.2316731397    0.9525383831
C        5.8308102144    1.1371817965    0.0451539278
C        3.6523811039    0.4162228940    0.8024124374
C        5.7505541861    0.2284011538   -1.0123292495
C        3.5638512259   -0.4991184923   -0.2538192506
C        4.6257965950   -0.5893621483   -1.1706855248
C        2.3643005783   -1.4049516050   -0.3769963154
C        0.9631935791   -0.8087582514   -0.4042188733
O        2.4840695210   -2.6188476484   -0.3551165292
O        4.5692233522   -1.4487822984   -2.2294583311
H        4.8335851621    1.9317189565    1.7785893963
H        6.7073770769    1.7655734413    0.1612202330
H        2.8511577600    0.4895664647    1.5296150996
H        6.5719333274    0.1659901472   -1.7151960845
H        0.7940230402   -0.3287773467   -1.3717446364
H        0.8459774765   -0.0657609582    0.3876953146
H        0.2178424139   -1.5966116860   -0.2634131577
H        5.4326129869   -1.5044153415   -2.6700977247
18   

C        4.8386234166    1.1837781433    1.0318050411
C        5.8391191306    1.1234565819    0.0622210694
C        3.7104653072    0.3667376636    0.9204153735
C        5.7020211383    0.2466594186   -1.0169461308
C        3.5680907327   -0.5143591444   -0.1557819405
C        4.5729279409   -0.5718823624   -1.1338202751
C        2.3581691156   -1.4159331338   -0.2556184048
C        0.9906702631   -0.8060633520   -0.5243345098
O        2.4380934431   -2.6069932263   -0.0090216900
O        4.4535255398   -1.4055640321   -2.2079414639
H        4.9388019954    1.8590112006    1.8741940033
H        6.7180156000    1.7535796856    0.1470398844
H        2.9441410162    0.4108598989    1.6870693698
H        6.4817902285    0.2098776804   -1.7674043959
H        0.9021327697   -0.5743453203   -1.5890335378
H        0.8687180179    0.1144857235    0.0517061926
H        0.2026525243   -1.5106360705   -0.2443407912
H        5.2844336279   -1.4338200062   -2.7101127132
18   

C        4.9142369575    1.1369589859    1.1193398134
C        5.8512062645    1.1056336432    0.0868144065
C        3.7790521339    0.3245279131    1.0545416343
C        5.6429460055    0.2631481233   -1.0082879797
C        3.5701342767   -0.5278990587   -0.0328433599
C        4.5065766430   -0.5506188068   -1.0771573144
C        2.3326806703   -1.3957109205   -0.1114142168
C        1.0784386187   -0.8460173116   -0.7723221377
O        2.3184521221   -2.5209620057    0.3569035494
O        4.3134664488   -1.3497979651   -2.1669308956
H        5.0674406706    1.7880051308    1.9727149685
H        6.7346545938    1.7333012616    0.1344146459
H        3.0568448310    0.3492432464    1.8638798552
H        6.3723007507    0.2506637149   -1.8085863566
H        1.2780006725   -0.6567850549   -1.8303911300
H        0.7866779237    0.0903326427   -0.2900625096
H        0.2598386620   -1.5659187561   -0.6856052162
H        5.1000023177   -1.3407329820   -2.7372600406
18   

C        4.9701257973    1.0775104197    1.1664765017
C        5.8557113638    1.0796411458    0.0891779540
C        3.8243295764    0.2788919426    1.1243309099
C        5.5868005312    0.2831467396   -1.0270853951
C        3.5543983572   -0.5279086104    0.0145702431
C        4.4399994681   -0.5176611663   -1.0743628718
C        2.2910481144   -1.3567723676   -0.0306313630
C        1.1372867183   -0.9254949491   -0.9244143826
O        2.1822206524   -2.3746476185    0.6332516641
O        4.1962942271   -1.2792347267   -2.1808169664
H        5.1704884170    1.6926044349    2.0365917462
H        6.7469417990    1.6973241133    0.1191548879
H        3.1399464514    0.2782829543    1.9664966543
H        6.2787103233    0.2955059860   -1.8599743865
H        1.4640546331   -0.9008304323   -1.9669828401
H        0.8001484009    0.0722579967   -0.6322966857
H        0.3044595903   -1.6277424039   -0.8292111426
H        4.9509534375   -1.2384006546   -2.7917674485
18   

C        5.0275472826    1.0331151431    1.1988507341
C        5.8693867862    1.0699225486    0.0873100832
C        3.8679040532    0.2546136141    1.1683375815
C        5.5444707785    0.3277326035   -1.0519058211
C        3.5428392847   -0.4978245275    0.0325380724
C        4.3838354832   -0.4537667339   -1.0906094572
C        2.2553888184   -1.2841796603    0.0325155930
C        1.1591037644   -0.9687714879   -0.9756780950
O        2.0621335897   -2.1526924064    0.8700791312
O        4.0927710213   -1.1676049314   -2.2168831134
H        5.2720986372    1.6059307058    2.0863601064
H        6.7711833377    1.6724285714    0.1091018568
H        3.2161599431    0.2267366687    2.0359133037
H        6.2053798005    0.3665417398   -1.9088043260
H        1.4157639897   -1.3922307816   -1.9496767992
H        1.0486479539    0.1142211607   -1.0734250232
H        0.2091258784   -1.3948272716   -0.6416752625
H        4.8195708813   -1.0957602505   -2.8582336734
18   

C        5.0238395378    0.8999866856    1.2659802433
C        5.8416261690    0.9702022399    0.1386787911
C        3.8345499052    0.1689903836    1.2190311664
C        5.4646615562    0.3073047454   -1.0328045335
C        3.4536816969   -0.5034781805    0.0479737210
C        4.2747160714   -0.4279593756   -1.0907910709
C        2.1348636819   -1.2265628262    0.0548249545
C        1.1353070438   -1.0626466328   -1.0822918926
O        1.8274942007   -1.9241431991    1.0129604984
O        3.9434502031   -1.0671546370   -2.2503942388
H        5.3089676382    1.4111552857    2.1786754342
H        6.7657846233    1.5371660060    0.1735415921
H        3.2018511499    0.1189449763    2.0999326424
H        6.1098118298    0.3710517070   -1.9001548103
H        1.3051429580   -1.8365372414   -1.8352861456
H        1.2542530917   -0.0793483550   -1.5448430590
H        0.1156705798   -1.1523191861   -0.6980393765
H        4.6519662846   -0.9606817524   -2.9073016575
18   

C        5.0770887023    0.8538659081    1.2798328680
C        5.8709545769    0.9418023834    0.1379470221
C        3.8596999682    0.1714424311    1.2314795050
C        5.4437223322    0.3423427727   -1.0495356113
C        3.4201689122   -0.4326382186    0.0407205300
C        4.2257656511   -0.3456479616   -1.1122367314
C        2.0824425880   -1.1168180306    0.0737127527
C        1.1450145653   -1.1281786953   -1.1274441534
O        1.6868705618   -1.6163858788    1.1214236485
O        3.8643403233   -0.9313245697   -2.2907115518
H        5.4021365292    1.3140604663    2.2062130716
H        6.8168081414    1.4716687089    0.1745186672
H        3.2517139454    0.1132841147    2.1292567080
H        6.0745967714    0.4160508436   -1.9265478399
H        1.3817579605   -1.9792515363   -1.7712201070
H        1.2539739627   -0.2015223938   -1.6968896484
H        0.1082979085   -1.2131069854   -0.7905028211
H        4.5637868775   -0.8096323272   -2.9547005541
18   

C        5.0830114000    0.7997994250    1.3193373997
C        5.8609644269    0.8893082710    0.1682675016
C        3.8307047940    0.1846207058    1.2692036549
C        5.3831709171    0.3571538757   -1.0306931084
C        3.3329246644   -0.3496816010    0.0655402595
C        4.1299692439   -0.2644188566   -1.0982614375
C        1.9669680649   -0.9783938683    0.1183463243
C        1.1066575991   -1.2078479891   -1.1190018524
O        1.4736853313   -1.2520117208    1.2086311714
O        3.7350407559   -0.7846089188   -2.2960952483
H        5.4471630107    1.2072276070    2.2558389721
H        6.8338662953    1.3675666480    0.2066525451
H        3.2452409474    0.1312762652    2.1820294732
H        6.0042494506    0.4300837936   -1.9147435471
H        1.4613152047   -2.0903929807   -1.6576464588
H        1.1513492687   -0.3346467186   -1.7748300928
H        0.0655930994   -1.3687217482   -0.8255502988
H        4.4289795962   -0.6537380731   -2.9640860351
18   

C        5.1368197592    0.7417162985    1.3248051876
C        5.9095594473    0.8403127892    0.1720257172
C        3.8570325086    0.1876727448    1.2623507863
C        5.3966425012    0.3825852150   -1.0421945141
C        3.3234184494   -0.2794076574    0.0452144916
C        4.1148238299   -0.1761445482   -1.1239601925
C        1.9337491216   -0.8573044862    0.0966843421
C        1.2005330641   -1.4089625622   -1.1209809565
O        1.3396025054   -0.8958518344    1.1707119722
O        3.6851390300   -0.6003468588   -2.3470148974
H        5.5263533560    1.0945460137    2.2731866248
H        6.9041072981    1.2707883910    0.2201115369
H        3.2829163675    0.1269120825    2.1818019822
H        6.0121750625    0.4673545378   -1.9290721711
H        1.7624869242   -2.2430101653   -1.5489830485
H        1.0763610626   -0.6226347761   -1.8699042037
H        0.2104203997   -1.7704839200   -0.8294344804
H        4.3713632650   -0.4426378534   -3.0171390370
18   

C        5.1399406387    0.6652517822    1.3459460632
C        5.9096613198    0.7742121675    0.1910255453
C        3.8354123420    0.1734434769    1.2713793555
C        5.3676106419    0.3938633432   -1.0379971082
C        3.2784060294   -0.2209447857    0.0400085805
C        4.0604063325   -0.1001322664   -1.1308313032
C        1.8700857630   -0.7495810726    0.0729884152
C        1.2736419486   -1.6023787020   -1.0409259311
O        1.1817370469   -0.5623994570    1.0720154821
O        3.5850091327   -0.4302111099   -2.3663139731
H        5.5512227501    0.9613343371    2.3044978120
H        6.9234430668    1.1558948025    0.2485364723
H        3.2594745747    0.0975871238    2.1886612276
H        5.9783358656    0.4912550680   -1.9268908328
H        2.0021663476   -2.3446763732   -1.3768349123
H        0.9848831962   -0.9648829813   -1.8805825834
H        0.3866134675   -2.1271591051   -0.6754187753
H        4.2576957495   -0.2491279317   -3.0442458131
18   

C        4.6333778718    1.9329425722    0.1016732027
C        5.7639069753    1.1271503650   -0.0185828694
C        3.3673870202    1.3994544985   -0.1487914753
C        5.6227474168   -0.2114788077   -0.3929352805
C        3.2150583195    0.0531707736   -0.5233993714
C        4.3596335904   -0.7594370143   -0.6478203819
C        1.8128965991   -0.4423375250   -0.7404684171
C        1.3901645695   -1.8645553506   -0.3936656001
O        0.9522594038    0.3377799710   -1.1334834336
O        4.2780464472   -2.0667779574   -1.0307712434
H        4.7339966700    2.9734948632    0.3893226082
H        6.7477693364    1.5406592251    0.1757365301
H        2.4961275142    2.0397644946   -0.0490758347
H        6.5116933639   -0.8227456566   -0.4862832992
H        1.9516018534   -2.2216762619    0.4735627282
H        1.5804740776   -2.5231870666   -1.2450212285
H        0.3233520310   -1.8887630492   -0.1552359064
H        5.1679927370   -2.4495689043   -1.1106619734
18   

C        4.6038677890    1.9101867288    0.1632502195
C        5.7455813607    1.1228565580    0.0179618038
C        3.3485204632    1.3794519201   -0.1423504704
C        5.6254980327   -0.1946633159   -0.4332861340
C        3.2220406354    0.0596335647   -0.6014095864
C        4.3721693582   -0.7365950390   -0.7421947029
C        1.8346911296   -0.4603524828   -0.8603795496
C        1.3845545332   -1.8153074825   -0.3307649464
O        1.0270533710    0.2333182828   -1.4650992017
O        4.2955779631   -2.0249512517   -1.1863341576
H        4.6882564120    2.9331522762    0.5125695404
H        6.7213292825    1.5335947906    0.2544831421
H        2.4634028880    1.9974353172   -0.0263224478
H        6.5209624951   -0.7939246917   -0.5410280613
H        1.9340068516   -2.0605042986    0.5819005068
H        1.5752627069   -2.5855277475   -1.0825245352
H        0.3151817133   -1.7904889677   -0.1045454327
H        5.1867874901   -2.4005888191   -1.2838069053
18   

C        4.5677693072    1.8358749412    0.2279191546
C        5.7211112020    1.0771189558    0.0291733138
C        3.3209929032    1.3122003974   -0.1228594898
C        5.6201369518   -0.2049521128   -0.5187291372
C        3.2153089642    0.0315659743   -0.6802449048
C        4.3744687376   -0.7369850873   -0.8717209311
C        1.8424448056   -0.5069535345   -0.9982155475
C        1.3227278102   -1.7549813702   -0.2980057358
O        1.1161397421    0.0785887642   -1.7873617398
O        4.3077404364   -1.9915191190   -1.4050580632
H        4.6371537683    2.8311656461    0.6523941250
H        6.6905344996    1.4820521519    0.2993150362
H        2.4257925620    1.9064010441    0.0313149026
H        6.5229396438   -0.7844179115   -0.6662039940
H        1.5658741088   -1.7084545167    0.7665712218
H        1.7834233298   -2.6454518464   -0.7323009753
H        0.2375620384   -1.8244510534   -0.4126116026
H        5.2019894790   -2.3428352828   -1.5521173271
18   

C        4.6407459763    1.8267872939    0.3526176155
C        5.8060277627    1.0973538584    0.1184234000
C        3.4030623344    1.3038490689   -0.0309010369
C        5.7247284734   -0.1547701259   -0.4966416716
C        3.3155562498    0.0559228380   -0.6556509592
C        4.4872818844   -0.6831402229   -0.8816611468
C        1.9654372511   -0.5117718287   -1.0299057302
C        1.3704410408   -1.6466846082   -0.2089408770
O        1.3447822698   -0.0803508760   -1.9876716388
O        4.4351884056   -1.9127815094   -1.4723370756
H        4.6941760777    2.7990214229    0.8295798394
H        6.7687054210    1.5009363364    0.4135434583
H        2.4994922956    1.8767631564    0.1506282095
H        6.6351823430   -0.7148051511   -0.6699366807
H        1.2538984936   -1.3262667461    0.8294502352
H        2.0320794714   -2.5158590782   -0.2421553345
H        0.3926390433   -1.9285072867   -0.6093096894
H        5.3327454665   -2.2407689315   -1.6491256189
18   

C        4.6248892892    1.7745560404    0.4295398756
C        5.8108742705    1.0983052247    0.1447056536
C        3.4005361016    1.2315423130    0.0308123680
C        5.7631400990   -0.1218556735   -0.5345114780
C        3.3466797739    0.0168816565   -0.6579505931
C        4.5387636436   -0.6692654730   -0.9339335802
C        2.0198763456   -0.5797356977   -1.0753633099
C        1.2887903387   -1.5108242798   -0.1210726035
O        1.5206570610   -0.3175839679   -2.1559872953
O        4.5151575726   -1.8730335199   -1.5773396270
H        4.6524069404    2.7216789798    0.9565905446
H        6.7633750043    1.5175506605    0.4507917461
H        2.4818685061    1.7654945452    0.2502826982
H        6.6885636980   -0.6432189053   -0.7451367685
H        1.1277901830   -1.0074183593    0.8355410232
H        1.8905375624   -2.4085651952    0.0435625593
H        0.3221829035   -1.8001800587   -0.5427701304
H        5.4178808364   -2.1576893578   -1.7965600539
18   

C        4.6013854898    1.6757143506    0.5019595373
C        5.8138780492    1.0740172140    0.1664745238
C        3.3982152900    1.0905254321    0.0986739630
C        5.8143183284   -0.1140666631   -0.5688019770
C        3.3916856427   -0.0971020480   -0.6391016682
C        4.6117909684   -0.7049198520   -0.9729570773
C        2.0871838922   -0.7101778706   -1.0964170613
C        1.1356368870   -1.2998030050   -0.0663198478
O        1.7301550443   -0.6361832941   -2.2595425139
O        4.6386692850   -1.8761001959   -1.6734089941
H        4.5922986017    2.5995586669    1.0694307618
H        6.7500526275    1.5270970439    0.4747018989
H        2.4605692670    1.5735518181    0.3525705651
H        6.7604446116   -0.5765644365   -0.8208356333
H        1.0916549747   -0.6580470153    0.8170373844
H        1.4931701059   -2.2895180139    0.2299068767
H        0.1323045931   -1.3936754157   -0.4909415377
H        5.5465799197   -2.0886183603   -1.9452852758
18   

C        4.5873770474    1.5891752781    0.5710079144
C        5.8160859064    1.0573578747    0.1832903600
C        3.4013773660    0.9691332496    0.1695989583
C        5.8506141376   -0.0973101390   -0.6016566632
C        3.4262035409   -0.1879580558   -0.6189376908
C        4.6666468694   -0.7254665579   -1.0048076146
C        2.1378869441   -0.8202344679   -1.0829247623
C        1.0683908307   -1.1964716577   -0.0661076147
O        1.8879807669   -0.9476320896   -2.2702253857
O        4.7369417988   -1.8663261495   -1.7506632940
H        4.5521596862    2.4877231641    1.1768150809
H        6.7387818042    1.5386675595    0.4893781273
H        2.4546719026    1.4086724948    0.4640739592
H        6.8099938116   -0.5060154016   -0.8934298694
H        0.9027381835   -0.3784044012    0.6383336524
H        1.3914330930   -2.0829457886    0.4860825546
H        0.1274667446   -1.4195442864   -0.5769753848
H        5.6446560710   -2.0152641499   -2.0614230937
18   

C        4.5896347154    1.4929871458    0.6481639128
C        5.8229815427    1.0375895448    0.1887843987
C        3.4169433033    0.8414435645    0.2592721180
C        5.8756175425   -0.0743912183   -0.6531022541
C        3.4536729761   -0.2734179294   -0.5920953886
C        4.7060739622   -0.7363255025   -1.0453418108
C        2.1758319672   -0.9312762710   -1.0345160578
C        1.0531195688   -1.1593224721   -0.0315523150
O        1.9925979962   -1.2542376615   -2.1979606306
O        4.8118146480   -1.8395305732   -1.8418871237
H        4.5398561509    2.3567539936    1.3016863358
H        6.7356615960    1.5434594689    0.4851747575
H        2.4673300574    1.2240353757    0.6168885984
H        6.8402160532   -0.4257098719   -0.9976602494
H        0.5363820553   -0.2181625312    0.1714608217
H        1.4657624490   -1.5555829613    0.9000887738
H        0.3357060521   -1.8805775029   -0.4331913173
H        5.7172445454   -1.9336735849   -2.1784925388
18   

C        4.5826639155    1.4237036550    0.7108318274
C        5.8176397696    1.0461738072    0.1930277133
C        3.4274337081    0.7374722381    0.3308361422
C        5.8899851155   -0.0242402213   -0.6980257928
C        3.4775569990   -0.3374059328   -0.5740333023
C        4.7395337152   -0.7229886677   -1.0840070022
C        2.2133872515   -1.0303569648   -0.9864765866
C        1.0264368821   -1.0897827026   -0.0326336764
O        2.0871653499   -1.5527736810   -2.0846796626
O        4.8844440263   -1.7841046289   -1.9299029442
H        4.5174267235    2.2542782885    1.4048042710
H        6.7168367215    1.5792196095    0.4829735840
H        2.4800878701    1.0673848661    0.7423420753
H        6.8577402594   -0.3155522393   -1.0868714814
H        0.4810558800   -0.1429812867   -0.0592105401
H        1.3745705811   -1.2830179869    0.9855400801
H        0.3512276444   -1.8974388883   -0.3294410726
H        5.7934642026   -1.8355990909   -2.2650716202
18   

C        4.6207905386    1.3814572086    0.7150229272
C        5.8377386018    1.0479763956    0.1324791653
C        3.4647988220    0.6795402156    0.3686603171
C        5.8910293984    0.0068682137   -0.7919425114
C        3.4892121383   -0.3712249734   -0.5686232400
C        4.7405664512   -0.7083176400   -1.1476891680
C        2.2250232610   -1.0910941863   -0.9251415909
C        0.9827454736   -0.9537804999   -0.0512805008
O        2.1364666913   -1.8138890230   -1.9086446949
O        4.8848084745   -1.7305678679   -2.0401830145
H        4.5697226413    2.1894912477    1.4362850979
H        6.7377660514    1.5924436942    0.3976023168
H        2.5379589646    0.9820635086    0.8421422000
H        6.8462543467   -0.2483991285   -1.2335577238
H        0.5472010569    0.0407630651   -0.1775811266
H        1.2438722532   -1.1115482765    0.9984735836
H        0.2392736556   -1.7023988470   -0.3400878643
H        5.7951724237   -1.7736794064   -2.3721003797
18   

C        4.6296201086    1.3631536766    0.7326776854
C        5.8322206667    1.0850063606    0.0954469302
C        3.4864214599    0.6250096212    0.4213919426
C        5.8829987982    0.0661348315   -0.8527034546
C        3.5073892624   -0.4113221858   -0.5332159435
C        4.7452474085   -0.6839004998   -1.1766033157
C        2.2589105601   -1.1798849009   -0.8387197265
C        0.9501179748   -0.8554549140   -0.1252594760
O        2.2285397163   -2.0876898648   -1.6594186106
O        4.8890443270   -1.6621162768   -2.1171690282
H        4.5801025410    2.1545147893    1.4723126702
H        6.7226535056    1.6565268833    0.3347956519
H        2.5753353078    0.8835827860    0.9479434273
H        6.8262915354   -0.1410744695   -1.3425141888
H        0.6576814763    0.1772124355   -0.3326085744
H        1.0667093942   -0.9982212711    0.9522097469
H        0.1566413429   -1.5196081216   -0.4802676455
H        5.8023436648   -1.6989123931   -2.4413937896
