65

C      1.26019    2.22304    4.94923
C      6.44266    0.03687    1.35423
C      2.63603    2.30463    4.74186
C      6.71310   -0.45720    0.07997
C      5.48869    2.03804    0.39002
C      0.76799    1.25850    5.83709
C      2.87347    0.49409    6.29515
C      5.81892    1.28232    1.52035
C      3.47541    1.41566    5.42992
C      6.34399    0.27934   -1.05349
C      5.73690    1.54035   -0.88591
C      6.71346    0.64804   -3.43139
C      5.51375    1.87721    2.86134
C      4.20425    2.87408   -2.25323
C      6.44915    2.11575   -3.11061
C      0.68084    6.21220   -6.82320
C      2.05555    5.58467   -7.09202
C     -0.11773    5.38005   -5.81003
C      5.95448   -2.36987   -3.56294
C      5.80139   -2.63270   -2.08439
C      2.83925    5.37039   -5.78937
C      0.67564    5.16624   -4.51390
C      6.81620   -1.62553   -2.57763
C      2.04454    4.52835   -4.77999
C      4.97643    1.43240    5.23196
C      3.97175    3.58979   -3.58520
N      1.55186    0.40306    6.50596
N      6.55162   -0.21978   -2.36275
N      5.43862    2.26983   -2.06889
N      5.38737    0.98537    3.89960
N      2.77048    4.39920   -3.51402
O      7.05453    0.28628   -4.54866
O      5.39579    3.09450    3.01959
O      3.33063    2.83094   -1.39348
H      0.57544    2.89327    4.43704
H      6.76444   -0.53977    2.21663
H      3.06328    3.03743    4.06260
H      7.20722   -1.41432   -0.03677
H      5.02633    3.00833    0.51897
H     -0.30245    1.17119    6.01840
H      3.49254   -0.20999    6.85314
H      7.39208    2.57764   -2.78830
H      6.14676    2.58894   -4.03897
H      0.11901    6.31263   -7.75940
H      0.81896    7.22764   -6.42708
H      1.91887    4.61870   -7.59778
H      2.63524    6.21484   -7.77644
H     -1.07336    5.86754   -5.58503
H     -0.36102    4.40514   -6.25451
H      6.44538   -3.10982   -4.18645
H      5.17554   -1.80244   -4.05951
H      4.91771   -2.24131   -1.59025
H      6.18063   -3.56238   -1.67058
H      3.80066    4.89088   -6.00999
H      3.06616    6.33689   -5.32060
H      0.83704    6.12831   -4.01094
H      0.10459    4.53626   -3.81947
H      7.86880   -1.89631   -2.53443
H      1.87279    3.53233   -5.23803
H      5.36798    2.44364    5.35497
H      5.45964    0.78892    5.97363
H      3.91429    2.81022   -4.36985
H      4.84065    4.21298   -3.82814
H      5.19083    0.02105    3.66337
H      2.16810    4.00760   -2.79154
