50

C      0.75481   -0.14691    1.40548
C      0.87117   -0.36159   -1.51870
C     -1.68370   -0.10981    0.45596
C     -2.51073    0.20988    1.70028
C     -1.40499    2.25187    2.07974
C     -0.40332    2.03100    0.95644
C     -0.29533    0.55224    0.50407
C      1.59185   -1.29335    4.09799
C      0.09060   -3.16216    3.31400
C      2.21009   -2.66835    2.04224
C      1.03053   -1.97324   -4.05768
C      2.29833    0.06883   -4.82709
C      3.27916   -1.38688   -3.01311
C      1.08088   -2.07849    2.88886
C      1.99410   -0.85776   -3.65102
N      0.26906    0.69302   -0.84143
O      1.88476    0.28575    1.51112
O      0.94441   -1.47715   -1.02980
O     -0.82356    2.23848   -2.66697
O      1.31877    2.97436   -1.55127
O     -2.65234    1.62271    1.86989
O     -0.83660    2.75064   -0.22856
O      0.23579   -1.19461    2.04198
O      1.31421    0.05980   -2.70146
S      0.05390    2.26531   -1.51510
H     -1.57023   -1.18735    0.32708
H     -2.20947    0.28776   -0.41665
H     -3.52428   -0.18189    1.59243
H     -2.06022   -0.23240    2.59930
H     -0.93461    1.88871    3.00881
H     -1.59742    3.32151    2.18797
H      0.58338    2.40178    1.24947
H      2.29651   -0.51623    3.80040
H      0.75724   -0.83346    4.63724
H      2.09922   -1.97976    4.78340
H     -0.30427   -3.68623    2.43903
H     -0.74713   -2.72701    3.86735
H      0.59020   -3.89030    3.95933
H      1.80771   -3.10571    1.12489
H      2.94706   -1.91169    1.77246
H      2.70938   -3.45526    2.61678
H      0.80834   -2.63495   -3.21931
H      0.09588   -1.54862   -4.43637
H      1.48519   -2.56540   -4.85817
H      2.94132    0.89393   -4.50907
H      1.37449    0.48914   -5.23359
H      2.80834   -0.49084   -5.61649
H      3.89970   -0.55626   -2.66401
H      3.06531   -2.04785   -2.17220
H      3.84688   -1.94679   -3.76313
