64

C     -6.26087   -8.05417    9.19447
C     -6.69583   -6.81863    8.65117
C      6.49635    2.68894   -0.73435
C      7.23807    1.49203   -0.74669
C     -4.99126   -8.52335    8.91737
C     -5.85405   -6.07973    7.84230
C      5.14628    2.68147   -0.37064
C      2.02202    1.81136    0.71022
C      6.65155    0.26951   -0.40390
C      0.92334    1.12937    1.22748
C     -2.79640   -8.24150    7.77610
C     -3.65590   -5.79532    6.71249
C      2.11033   -1.00774    1.07726
C     -4.10488   -7.78422    8.08903
C     -4.54358   -6.53854    7.53894
C      4.53344    1.47176   -0.02180
C      3.20225    1.10672    0.41554
C      5.29713    0.26023   -0.04777
C      3.21847   -0.29895    0.61244
C      0.98372   -0.27042    1.43774
C     -1.94479   -7.51443    6.97472
C     -2.38093   -6.25260    6.43377
C      3.64041   -3.26020    2.56118
C     -0.13491   -8.03604    5.45588
C      4.96000   -2.61558    2.01402
C     -0.98894   -2.54441    3.51738
C     -0.69398   -3.89859    4.17713
C      4.89957   -2.19130    0.53423
C      0.14291   -2.17913    2.57230
C     -1.83637   -4.34467    5.07256
N      4.48103   -0.80066    0.31968
O      3.35278   -3.01282    3.76117
O      2.99393   -3.96835    1.72955
O     -0.67678   -7.99542    6.79121
O     -0.09921   -0.85603    2.04490
O     -1.46488   -5.59317    5.68064
H     -6.92944   -8.62940    9.83039
H     -7.69557   -6.45371    8.87419
H      6.98064    3.62440   -1.00491
H      8.28962    1.51581   -1.02424
H     -4.65307   -9.47024    9.33329
H     -6.18799   -5.13139    7.42622
H      4.57690    3.60868   -0.35451
H      1.97136    2.88914    0.56924
H      7.24030   -0.64318   -0.40996
H      0.01684    1.65676    1.51138
H     -2.43654   -9.18611    8.17548
H     -3.99250   -4.84261    6.31914
H      2.16304   -2.08206    1.20129
H      0.62026   -8.82525    5.47247
H      0.32229   -7.08436    5.18465
H     -0.91291   -8.29180    4.72825
H      5.73585   -3.38657    2.11069
H      5.25753   -1.77458    2.64698
H     -1.94102   -2.57647    2.97027
H     -1.08232   -1.76310    4.28197
H      0.23291   -3.83429    4.75583
H     -0.52461   -4.66074    3.40823
H      4.19648   -2.85796    0.02416
H      5.87205   -2.29801    0.04704
H      1.10152   -2.20585    3.10089
H      0.20615   -2.90177    1.75038
H     -2.75653   -4.48571    4.48939
H     -2.03823   -3.60752    5.86185
