54

C     -6.96230   -2.39600    5.01240
C     -5.88971   -3.16350    3.00554
C     -6.68666   -3.60889    5.63431
C     -5.59977   -4.39117    3.61301
C     -6.57067   -2.15149    3.68643
C     -5.99892   -4.61533    4.93702
C     -2.56285   -1.37096    3.47006
C     -3.82692   -0.47305    1.83691
C     -0.98089   -0.13392    0.69245
C     -1.42452   -2.13107    4.06987
C     -0.19836   -2.08676    3.14170
C     -0.59582   -2.44077    1.70050
C     -7.41267   -0.73341    1.67869
C     -8.18318   -0.25809    2.89351
C     -2.05546   -0.17883   -1.65956
C     -0.75088    1.49021   -1.20049
C     -1.63388   -1.46520    1.11069
C     -1.79135    1.19978   -2.30376
C     -6.78262   -0.81003    3.05070
C     -5.08354   -6.82514    4.96473
C     -5.69431    0.21065    3.37554
N     -3.58521   -0.85453    4.09001
N     -2.66212   -1.19469    2.10316
N     -4.36166   -0.28701    3.08454
N     -1.03783    0.16039   -0.63000
O     -4.23797   -0.10021    0.73066
O     -0.40871    0.58954    1.50958
O     -5.77202   -5.77511    5.63296
F     -1.24151    1.12251   -3.58262
H     -7.49055   -1.62136    5.56392
H     -5.57656   -2.99240    1.97830
H     -6.99164   -3.80215    6.65880
H     -5.07382   -5.15303    3.04803
H     -1.20226   -1.72194    5.05827
H     -1.74298   -3.17147    4.21692
H      0.24732   -1.08981    3.15971
H      0.55321   -2.79887    3.49685
H      0.28230   -2.44836    1.04816
H     -1.02569   -3.44988    1.67590
H     -7.72819   -1.66580    1.22066
H     -7.01915    0.00310    0.98591
H     -8.33020    0.81152    3.02294
H     -9.00612   -0.87260    3.24580
H     -3.05627   -0.31612   -1.24430
H     -1.76577   -1.01529   -2.30283
H      0.27132    1.59770   -1.57430
H     -0.98672    2.30704   -0.51297
H     -2.11753   -1.92581    0.24600
H     -2.64728    1.87444   -2.35053
H     -5.01056   -7.64168    5.68462
H     -4.07407   -6.51588    4.66446
H     -5.63594   -7.16907    4.08109
H     -5.69894    0.45813    4.43958
H     -5.85193    1.12846    2.80118
