67

C      2.62537    0.43183    0.50533
C      2.68384    2.82298   -0.05495
C      0.63151    1.51612   -0.19472
C      1.26887    0.34354    0.21407
C     -0.73221    1.70205   -0.54358
C      3.33114    1.66260    0.38428
C      1.31507    2.74064   -0.34817
C     -0.87907    3.02373   -0.91300
C      0.38375   -5.46731   -1.76468
C     -1.67524    0.55710   -0.35176
C      1.22607   -2.15417   -0.23853
C     -0.99978   -3.26646   -0.12119
C      0.42190   -0.92319    0.26487
C      0.31953   -3.20618   -0.88219
C     -0.88032   -0.74951   -0.56756
C      4.79924    1.70011    0.74465
C     -5.01020   -2.77614    1.65317
C     -0.43009   -8.60289   -2.19681
C      3.58009   -6.52428   -1.84902
C     -2.07652    4.06518   -3.18783
C     -3.80923   -3.06984    0.74415
C      0.53354   -7.62396   -2.87056
C      2.27853   -6.97627   -1.17599
C     -2.89285   -1.84885    0.66817
N      0.37372    3.64922   -0.79930
N      0.93102   -4.52800   -0.86707
N      1.07583   -6.62518   -1.93620
N     -1.79308   -1.99617   -0.36578
O     -0.69624   -5.22131   -2.32387
S     -2.33102    3.90155   -1.37221
H      3.18186   -0.44465    0.83011
H      3.23717    3.75254   -0.15949
H     -2.07188    0.59635    0.66794
H     -2.52649    0.60943   -1.04005
H      1.97765   -1.82700   -0.96166
H      1.75829   -2.59790    0.60922
H     -1.60101   -4.10229   -0.46825
H     -0.82842   -3.34957    0.95373
H      0.12332   -1.09587    1.30795
H      0.09593   -2.92844   -1.92004
H     -0.60616   -0.78913   -1.62466
H      5.35240    0.89834    0.24422
H      5.25815    2.65065    0.46208
H      4.94171    1.56975    1.82352
H     -4.68860   -2.52445    2.66900
H     -5.60943   -1.94383    1.27057
H     -5.65855   -3.65323    1.71773
H      0.05339   -9.14184   -1.37508
H     -1.29746   -8.06824   -1.80049
H     -0.78400   -9.34308   -2.92155
H      3.67057   -6.95739   -2.84939
H      3.62633   -5.43479   -1.95856
H      4.44590   -6.84238   -1.25972
H     -2.95105    4.59518   -3.57241
H     -2.01015    3.08194   -3.65723
H     -1.18103    4.64845   -3.40873
H     -4.16324   -3.32728   -0.26258
H     -3.26866   -3.93977    1.12534
H      0.02772   -7.09040   -3.67594
H      1.38444   -8.15564   -3.30782
H      2.19773   -6.57398   -0.16163
H      2.28422   -8.06387   -1.06319
H     -3.47762   -0.97356    0.39081
H     -2.40319   -1.64980    1.62422
H      0.51123    4.64438   -0.91835
H      1.93896   -4.52172   -0.77062
H     -2.26663   -2.13291   -1.26410
