46

C      0.68323    1.95573    4.44531
C     -0.04616   -4.50234    0.31536
C     -0.44818    1.31996    3.92948
C     -0.76293   -3.66903    1.17269
C      1.20131    1.58442    5.68977
C      1.32591   -2.55279    1.68411
C      3.06902   -6.16859   -0.40998
C     -0.55742   -0.08727    5.89202
C      1.42157   -5.63312   -2.06496
C      2.91488   -7.30382   -2.54359
C      1.34123   -4.39701    0.11624
C      2.05237   -3.38020    0.80874
C      1.96857   -5.38939   -0.79404
C     -1.07803    0.28999    4.64583
C     -0.05110   -2.68303    1.87126
C      3.52038   -7.12449   -1.30191
C      0.56487    0.56609    6.40075
C      3.48241   -3.08486    0.65968
C     -1.96528   -1.57864    3.07455
C     -3.49412   -0.64294    4.89827
C     -3.51942    0.32945    3.75333
C     -2.24323   -0.44715    4.05675
N      4.31621   -3.58612   -0.27564
N      1.87053   -6.55924   -2.92539
N      4.11835   -2.20013    1.46339
N      5.49627   -2.99374   -0.03540
N      5.37647   -2.16621    1.00631
N     -0.64858   -1.77494    2.78383
O     -2.89740   -2.23342    2.59884
F      4.57436   -7.92116   -0.96469
Cl     1.19803    0.08687    7.97122
H      1.17612    2.73814    3.87486
H     -0.58238   -5.29215   -0.20483
H     -0.84126    1.60759    2.95796
H     -1.83012   -3.77827    1.30650
H      2.08457    2.06686    6.09560
H      1.88547   -1.78013    2.20561
H      3.56085   -6.02804    0.54517
H     -1.02236   -0.89170    6.45346
H      0.58318   -5.03009   -2.40893
H      3.28815   -8.05873   -3.23387
H     -3.47315   -0.24338    5.90771
H     -4.01534   -1.58445    4.76299
H     -4.05663    0.03380    2.85847
H     -3.50709    1.39124    3.98089
H      0.01036   -1.15562    3.23915
