23   

C        5.7000040396    1.7602110812    0.0652226459
C        4.7727681397    2.0879640102   -0.9234350524
C        5.4856006907    0.6380480632    0.8651666667
C        3.6365486255    1.2927406435   -1.1114235844
C        4.3483118611   -0.1559179264    0.6749331450
C        3.3976863882    0.1482551491   -0.3220298855
C        1.3270255209   -0.6473560246   -1.5648454842
C        2.1983112263   -0.6870352723   -0.5130619146
C        0.1892131434   -1.5997403595   -1.3689844205
C        1.7411792988   -1.7138808513    0.5142638396
C        0.8295703402   -2.5754298363   -0.3729920167
H        6.5808484777    2.3748710965    0.2125597481
H        4.9310626242    2.9611688796   -1.5459938301
H        6.2016099460    0.3797358352    1.6370456251
H        2.9307852032    1.5781864909   -1.8808306029
H        4.2252210514   -1.0149433692    1.3201337209
H        1.4458909359   -0.0288863183   -2.4460907348
H       -0.1209082567   -2.0962873111   -2.2938259254
H       -0.6561098775   -1.0751765041   -0.9115322276
H        1.1673354563   -1.2168682288    1.3029590080
H        2.5466275843   -2.3177692984    0.9401961623
H        0.1018299758   -3.1675891527    0.1908368812
H        1.4692692553   -3.2584095752   -0.9424398072
23   

C        5.6766886817    1.7465984639    0.0665799844
C        4.6709808707    2.1522270979   -0.8120348727
C        5.5464499700    0.5399925053    0.7562734145
C        3.5390799002    1.3507647163   -0.9997260304
C        4.4132840976   -0.2600648361    0.5665035695
C        3.3879415249    0.1268787584   -0.3171525404
C        1.4071579211   -0.7590294976   -1.6285642952
C        2.1913202213   -0.7122278493   -0.5124870485
C        0.2402920365   -1.6766197867   -1.4355960954
C        1.6315449795   -1.6215807353    0.5725220574
C        0.7810503091   -2.5578781141   -0.2999661929
H        6.5544410800    2.3658300266    0.2132077814
H        4.7652630888    3.0897672843   -1.3479877240
H        6.3253040452    0.2204125247    1.4392221197
H        2.7649725984    1.6874531690   -1.6783269958
H        4.3485326947   -1.1933550331    1.1101167610
H        1.6157132606   -0.2263658945   -2.5489613016
H       -0.0032069603   -2.2577483317   -2.3306050298
H       -0.6296257433   -1.1015436330   -1.1016175514
H        1.0016022128   -1.0384021713    1.2517944943
H        2.3876804400   -2.1786475016    1.1316471147
H       -0.0007658430   -3.0847266464    0.2562322512
H        1.4530618665   -3.2993700805   -0.7454939146
23   

C        5.6713874247    1.7393838552    0.0768844267
C        4.6016246967    2.2067060676   -0.6903570674
C        5.6120876543    0.4647471471    0.6458424978
C        3.4763862531    1.3981967030   -0.8885834560
C        4.4852066859   -0.3415989530    0.4455145433
C        3.4032627972    0.1089207824   -0.3287415061
C        1.4996781865   -0.8735557367   -1.6799114225
C        2.2086362474   -0.7352390689   -0.5238182256
C        0.3045395077   -1.7528624147   -1.4790194728
C        1.5561086867   -1.5166423168    0.6072323220
C        0.7488556317   -2.5246002156   -0.2259551761
H        6.5438767400    2.3641032258    0.2314293659
H        4.6414002198    3.1965329510   -1.1305567436
H        6.4398138147    0.0987807193    1.2425588673
H        2.6478523721    1.7728015388   -1.4778267654
H        4.4580231926   -1.3292477673    0.8891617856
H        1.7819405387   -0.4277088201   -2.6267469000
H        0.1110438156   -2.4168453020   -2.3273691106
H       -0.5746449669   -1.1362654486   -1.2648268794
H        0.8933965491   -0.8566569461    1.1760435003
H        2.2678458312   -2.0142028872    1.2721776884
H       -0.0797729895   -2.9826096334    0.3233699743
H        1.4346828305   -3.3157509550   -0.5477947304
23   

C        5.6726519134    1.7300691712    0.0829608239
C        4.5442027442    2.2474947844   -0.5591748729
C        5.6769642190    0.4013058683    0.5167881220
C        3.4240556432    1.4345542003   -0.7686015091
C        4.5547444793   -0.4086393225    0.3051472652
C        3.4191384829    0.0935790363   -0.3472131755
C        1.5873641331   -0.9993638876   -1.7196673783
C        2.2247493325   -0.7562099141   -0.5408781989
C        0.3648663770   -1.8375406029   -1.5063029177
C        1.4884616942   -1.4034335867    0.6223556556
C        0.7137049096   -2.4808000177   -0.1533395366
H        6.5409871811    2.3582702610    0.2465132153
H        4.5346850893    3.2788822791   -0.8927436712
H        6.5489899811   -0.0025608387    1.0183631404
H        2.5478905889    1.8418761010   -1.2592788532
H        4.5644522300   -1.4373617400    0.6453919389
H        1.9361766989   -0.6503397970   -2.6848858601
H        0.2117982810   -2.5836160493   -2.2923857418
H       -0.5136747781   -1.1904456834   -1.4141518671
H        0.8067627938   -0.6779740820    1.0776167511
H        2.1545769269   -1.8352246243    1.3755143819
H       -0.1570134183   -2.8673581499    0.3857141207
H        1.4015717073   -3.3109238263   -0.3471252747
23   

C        5.6786810561    1.7211883631    0.0745162632
C        4.4947029103    2.2798189801   -0.4159896298
C        5.7375602422    0.3528944640    0.3556524462
C        3.3731114612    1.4688605389   -0.6258677611
C        4.6136024728   -0.4545407341    0.1436547760
C        3.4231676683    0.0917078029   -0.3552662704
C        1.6764439596   -1.1360911357   -1.7350642077
C        2.2263393877   -0.7610091579   -0.5477672208
C        0.4322624730   -1.9406553643   -1.5172723600
C        1.4050403639   -1.2720187919    0.6261761707
C        0.6766145024   -2.4280291390   -0.0784031946
H        6.5479968154    2.3478067653    0.2389211019
H        4.4436068534    3.3409774301   -0.6315075171
H        6.6526716953   -0.0832228060    0.7396933360
H        2.4539732243    1.9044743025   -0.9998461107
H        4.6608225278   -1.5140354704    0.3664950825
H        2.1005963457   -0.9014034970   -2.7047071229
H        0.3268322238   -2.7702284432   -2.2234209591
H       -0.4431104263   -1.2842846120   -1.5619863796
H        0.7003249403   -0.4992138920    0.9492062439
H        2.0164461336   -1.6168567304    1.4658749527
H       -0.2343423622   -2.7496900335    0.4362327258
H        1.3679404354   -3.2762239254   -0.1276871222
23   

C        5.6882158926    1.7088275056    0.0661811417
C        4.4587913488    2.3004169644   -0.2393962450
C        5.7850284199    0.3174739918    0.1655123194
C        3.3289180960    1.4996500358   -0.4439795983
C        4.6526506439   -0.4796638454   -0.0406414044
C        3.4149758020    0.1014554919   -0.3468766136
C        1.7771296436   -1.2719756541   -1.7288611585
C        2.2139742305   -0.7465139839   -0.5519983296
C        0.5176138011   -2.0564397392   -1.5272347612
C        1.2995216499   -1.1329829327    0.6001637133
C        0.6369837508   -2.3712018503   -0.0256486486
H        6.5640542363    2.3274097564    0.2263406951
H        4.3794686445    3.3787527385   -0.3169790164
H        6.7363351579   -0.1446850557    0.4032874870
H        2.3759573412    1.9590610953   -0.6789798338
H        4.7289410530   -1.5577902178    0.0387040278
H        2.2934122133   -1.1601435100   -2.6755129880
H        0.4725914690   -2.9632335175   -2.1384895956
H       -0.3497931465   -1.4173816479   -1.7230519498
H        0.5668831782   -0.3384855724    0.7737217757
H        1.8410236242   -1.3715092844    1.5209564761
H       -0.3146731409   -2.6417289488    0.4426717083
H        1.3312610532   -3.2113097703    0.0835370814
23   

C        5.6974964458    1.6997656226    0.0678970408
C        4.4409399585    2.3021643437   -0.0452180556
C        5.8121693139    0.3088708197   -0.0166976389
C        3.3015368006    1.5124576115   -0.2394701665
C        4.6702671881   -0.4774284260   -0.2115856311
C        3.4037715480    0.1132658971   -0.3173723764
C        1.8794542159   -1.3990619851   -1.6766119671
C        2.1991330858   -0.7226865353   -0.5393253872
C        0.6037193481   -2.1632798933   -1.5022775990
C        1.1828758464   -0.9847798282    0.5616839568
C        0.5829166673   -2.2967019513    0.0303520636
H        6.5809261208    2.3097708184    0.2190114273
H        4.3483041453    3.3804796990    0.0162051782
H        6.7851654992   -0.1614422129    0.0681264164
H        2.3288073627    1.9812219195   -0.3311433043
H        4.7618701528   -1.5551964446   -0.2786488688
H        2.4917022043   -1.4110395731   -2.5711524819
H        0.6128853534   -3.1364654685   -2.0030357418
H       -0.2394697866   -1.5585140102   -1.8521966873
H        0.4349061832   -0.1857350098    0.5724784052
H        1.6378414573   -1.1053823171    1.5498680135
H       -0.4080605910   -2.5208100366    0.4376513847
H        1.2647476228   -3.1095113108    0.3027059133
23   

C        5.6962327105    1.6879641143    0.0832878749
C        4.4270544723    2.2708860912    0.1408030666
C        5.8216203938    0.3187262997   -0.1691284137
C        3.2858875338    1.4831937795   -0.0508619532
C        4.6781502888   -0.4661202635   -0.3605632418
C        3.3980327187    0.1026655345   -0.2941189738
C        1.9617451865   -1.5216556642   -1.6081928943
C        2.1942385425   -0.7234049831   -0.5290747895
C        0.6626673805   -2.2520470438   -1.4648063118
C        1.0815261581   -0.8594184213    0.4997002853
C        0.5097503663   -2.2183639560    0.0652083378
H        6.5810677162    2.2967262634    0.2311648036
H        4.3258543189    3.3332849293    0.3310319633
H        6.8044847184   -0.1359097378   -0.2180371107
H        2.3041400120    1.9403614664   -0.0135773514
H        4.7809035992   -1.5265815136   -0.5585636118
H        2.6491010506   -1.6413064751   -2.4378490975
H        0.6978060292   -3.2738382378   -1.8555083977
H       -0.1370184392   -1.6820016775   -1.9492728158
H        0.3466364703   -0.0607923513    0.3576156127
H        1.4467034281   -0.8728041908    1.5314704374
H       -0.5155410787   -2.3910037294    0.4074304696
H        1.1539648397   -3.0002300616    0.4816897039
23   

C        5.6998642378    1.6832698093    0.0959289822
C        4.4271317943    2.2239246740    0.2976502233
C        5.8330821752    0.3509418220   -0.3044703557
C        3.2903226880    1.4312886120    0.1007393514
C        4.6942988477   -0.4394510023   -0.5007597906
C        3.4092259711    0.0860422064   -0.2939578817
C        2.0303974570   -1.6369332034   -1.5399147644
C        2.2093248496   -0.7377691223   -0.5305899238
C        0.7053150972   -2.3237811395   -1.4210440420
C        1.0170345369   -0.7455788117    0.4153739512
C        0.4445514859   -2.1319633180    0.0817970964
H        6.5811635775    2.2962714324    0.2473674110
H        4.3194025364    3.2582449024    0.6037537008
H        6.8187543083   -0.0711046492   -0.4639620564
H        2.3071776571    1.8613278494    0.2506040365
H        4.8084566135   -1.4714030837   -0.8105025407
H        2.7672512666   -1.8535606782   -2.3047151745
H        0.7411894305   -3.3804753425   -1.7039881486
H       -0.0422487007   -1.7905819627   -2.0177143107
H        0.3153245279    0.0458339471    0.1335465920
H        1.3009069790   -0.6568042343    1.4687825437
H       -0.6065254981   -2.2507051204    0.3633474285
H        1.0382029151   -2.8776958826    0.6216007905
23   

C        5.6957665493    1.6864313977    0.1002356743
C        4.4269911645    2.1640931443    0.4370853535
C        5.8339137587    0.4048955307   -0.4384821852
C        3.2988524127    1.3603006975    0.2353977367
C        4.7042806717   -0.3972692024   -0.6394915443
C        3.4209505649    0.0658961469   -0.3031922162
C        2.0803932023   -1.7493920352   -1.4652918881
C        2.2279696074   -0.7665864348   -0.5296377703
C        0.7308218667   -2.3906640565   -1.3693314165
C        0.9755226386   -0.6562886704    0.3280681760
C        0.3826399621   -2.0529660419    0.0884759341
H        6.5700282476    2.3085061376    0.2554382040
H        4.3151401657    3.1590579916    0.8526180684
H        6.8168949773    0.0306149270   -0.7007429634
H        2.3217757510    1.7500388192    0.4939964379
H        4.8304774288   -1.3902621910   -1.0529903172
H        2.8474259269   -2.0512712439   -2.1686097604
H        0.7531218102   -3.4698140154   -1.5507232206
H        0.0378651306   -1.8984515062   -2.0597647560
H        0.3183757266    0.1215126176   -0.0738068537
H        1.1898980891   -0.4765285864    1.3863272536
H       -0.6871875347   -2.1185326166    0.3105137651
H        0.9182954747   -2.7589581192    0.7323839320
23   

C        5.6947102381    1.6944870076    0.0996287372
C        4.4420016318    2.0987751703    0.5654490664
C        5.8244024372    0.4753481156   -0.5686759246
C        3.3210436618    1.2850893368    0.3627961628
C        4.7026071251   -0.3373339998   -0.7707952429
C        3.4325919138    0.0533148632   -0.3090337852
C        2.1246086150   -1.8513145739   -1.3733479870
C        2.2461631201   -0.7920407375   -0.5187855407
C        0.7528735829   -2.4478935921   -1.3107627605
C        0.9427880510   -0.5740788432    0.2370283480
C        0.3210448224   -1.9698221468    0.0825945859
H        6.5629337590    2.3246647555    0.2560638743
H        4.3365644512    3.0453532761    1.0831656815
H        6.7954047096    0.1569147636   -0.9304494809
H        2.3615435012    1.6294491082    0.7277218224
H        4.8315036161   -1.2808309645   -1.2853494392
H        2.9166706513   -2.2348103625   -2.0047712489
H        0.7540089325   -3.5393806157   -1.3922889129
H        0.1215463117   -2.0044921621   -2.0879109256
H        0.3394361745    0.1824514594   -0.2749114205
H        1.0873835453   -0.3116175906    1.2897345972
H       -0.7626259724   -1.9862945904    0.2359538311
H        0.7898097397   -2.6283934616    0.8218839045
23   

C        5.6966326021    1.7040460433    0.0909192114
C        4.4764698878    2.0273537991    0.6868258996
C        5.7967987085    0.5600859776   -0.7024796441
C        3.3582652788    1.2080694924    0.4905651557
C        4.6784587480   -0.2586393367   -0.8984138089
C        3.4395211056    0.0501590050   -0.3058373391
C        2.1688977844   -1.9405405183   -1.2601454151
C        2.2580617444   -0.8081433185   -0.4991277687
C        0.7812407272   -2.5016044667   -1.2473932658
C        0.9101780687   -0.4979625792    0.1382523226
C        0.2601897833   -1.8871802753    0.0578785336
H        6.5621828801    2.3389146226    0.2431765516
H        4.3939037673    2.9159592401    1.3022531004
H        6.7422755419    0.3049226419   -1.1673397783
H        2.4306475778    1.4995917569    0.9649254770
H        4.7885357962   -1.1392111636   -1.5174058672
H        2.9906268092   -2.3993085948   -1.7956772136
H        0.7592966647   -3.5957574693   -1.2278010133
H        0.2213518238   -2.1206792012   -2.1079129190
H        0.3672642927    0.2268512321   -0.4768344347
H        0.9769297756   -0.1591161190    1.1762647448
H       -0.8319634283   -1.8650190356    0.1275647573
H        0.6515390045   -2.4866163012    0.8870629130
23   

C        5.7164752870    1.7159928743    0.0826736388
C        4.5492211948    1.9500214265    0.8117170599
C        5.7607641481    0.6626705510   -0.8320885418
C        3.4279244986    1.1318844830    0.6278450680
C        4.6395812839   -0.1549099820   -1.0154469283
C        3.4543747442    0.0641956737   -0.2890751920
C        2.2240235783   -1.9976766769   -1.1291211200
C        2.2742189628   -0.7995502354   -0.4736592417
C        0.8304801416   -2.5419233105   -1.1694242797
C        0.8901452267   -0.4153842120    0.0318861634
C        0.2218101249   -1.7987879746    0.0266857692
H        6.5842537862    2.3499113234    0.2259456432
H        4.5108436460    2.7672189162    1.5229925177
H        6.6641599481    0.4782353119   -1.4021608514
H        2.5469704935    1.3496164565    1.2156750420
H        4.6994109003   -0.9602103321   -1.7361272663
H        3.0796865963   -2.5121322424   -1.5490578956
H        0.7888463553   -3.6287491903   -1.0463334203
H        0.3440995504   -2.2412928581   -2.1032531086
H        0.4087107606    0.2570174148   -0.6853690845
H        0.8763091685    0.0131645182    1.0372498630
H       -0.8718249756   -1.7570933861    0.0070815444
H        0.5349166011   -2.3223570789    0.9365122163
23   

C        5.7118976228    1.7121991624    0.0766811483
C        4.6054937955    1.8531696481    0.9172293652
C        5.6921554601    0.7545579674   -0.9395782728
C        3.4807989648    1.0381480536    0.7413303565
C        4.5669263816   -0.0595838254   -1.1139882660
C        3.4431219064    0.0702795317   -0.2797042664
C        2.2558960405   -2.0535591785   -0.9952802776
C        2.2651530760   -0.7983991961   -0.4587912149
C        0.8650233491   -2.6009494480   -1.0760823585
C        0.8517030630   -0.3605040485   -0.1013692837
C        0.1783751949   -1.7384701245   -0.0069847421
H        6.5830190628    2.3429595075    0.2134239356
H        4.6184488331    2.5928709692    1.7095941753
H        6.5484436983    0.6420618431   -1.5947339746
H        2.6448112866    1.1632981252    1.4166938333
H        4.5669122817   -0.7921816476   -1.9117030263
H        3.1419069705   -2.6003273091   -1.2958672881
H        0.8086456025   -3.6693711685   -0.8451188909
H        0.4462687722   -2.3988293704   -2.0674430546
H        0.4301375501    0.2264812297   -0.9236017354
H        0.7707173051    0.1855118774    0.8419769569
H       -0.9110120173   -1.7013394918   -0.1070755758
H        0.4251529117   -2.1631943786    0.9720988741
23   

C        5.7102573797    1.7097852909    0.0786289030
C        4.6683543783    1.7506770930    1.0088847178
C        5.6256653030    0.8521297380   -1.0213793175
C        3.5426793145    0.9364979462    0.8367961046
C        4.4989253827    0.0387577275   -1.1909843918
C        3.4396109017    0.0748100277   -0.2706976421
C        2.2809289312   -2.1018315604   -0.8545087199
C        2.2654581360   -0.8032193318   -0.4396165551
C        0.8917700269   -2.6474736077   -0.9747091754
C        0.8376129369   -0.3191486278   -0.2340058953
C        0.1431670903   -1.6772055419   -0.0466899216
H        6.5827103603    2.3395331125    0.2114448700
H        4.7329037760    2.4104372348    1.8666074484
H        6.4329893249    0.8159741662   -1.7438963331
H        2.7488589040    0.9691193409    1.5728864021
H        4.4422656067   -0.6220425454   -2.0477995718
H        3.1830127502   -2.6725605980   -1.0427757646
H        0.8071917245   -3.6868331142   -0.6421492130
H        0.5435359164   -2.5445857680   -2.0077516950
H        0.4843390628    0.1810870945   -1.1413525437
H        0.7095817940    0.3287860097    0.6378476153
H       -0.9363403072   -1.6452602503   -0.2250136559
H        0.3177812961   -2.0013019670    0.9849793070
23   

C        5.7080474243    1.7093106292    0.0828040478
C        4.7419107502    1.6383707222    1.0905448245
C        5.5476850634    0.9624674897   -1.0880245903
C        3.6157112069    0.8238209809    0.9242837420
C        4.4202852109    0.1484860649   -1.2510662627
C        3.4370423665    0.0768424907   -0.2538317657
C        2.2890256377   -2.1396113571   -0.7003020116
C        2.2632693699   -0.8078743272   -0.4153209700
C        0.9027048941   -2.6802911152   -0.8684985191
C        0.8345858116   -0.2877179694   -0.3678701500
C        0.1042845080   -1.6134470966   -0.1003265576
H        6.5809829094    2.3394871824    0.2102949942
H        4.8656468424    2.2114953036    2.0023231341
H        6.2969202763    1.0122182087   -1.8698689781
H        2.8743660897    0.7647151560    1.7123545686
H        4.3019284664   -0.4307722148   -2.1592567844
H        3.1949558073   -2.7309215082   -0.7695477105
H        0.7757433730   -3.6799750199   -0.4412950752
H        0.6330301574   -2.6786244239   -1.9297812261
H        0.5589167879    0.1246731119   -1.3436824028
H        0.6635198070    0.4461257732    0.4256498294
H       -0.9583379795   -1.5884588796   -0.3617875382
H        0.1961433834   -1.8344727847    0.9685709466
23   

C        5.7069290604    1.7081679529    0.0888760554
C        4.8291863381    1.5055781753    1.1580362098
C        5.4612525378    1.0878991535   -1.1398788991
C        3.7061961241    0.6858448357    0.9954004053
C        4.3372212933    0.2683407477   -1.2984547348
C        3.4445102499    0.0644123029   -0.2375125344
C        2.2777259480   -2.1741669927   -0.5293904582
C        2.2654146535   -0.8187333144   -0.4041561714
C        0.8937089873   -2.7039255389   -0.7451380491
C        0.8530743617   -0.2675306500   -0.5254935841
C        0.0687382940   -1.5404393371   -0.1680212331
H        6.5769802079    2.3430028991    0.2129138718
H        5.0182861939    1.9815799628    2.1134334010
H        6.1412377503    1.2405668431   -1.9701940929
H        3.0293937473    0.5258010909    1.8264956987
H        4.1504407324   -0.2133263289   -2.2511162983
H        3.1703035960   -2.7850116647   -0.4560369279
H        0.7062655057   -3.6454592556   -0.2194576538
H        0.7064482309   -2.8187647591   -1.8179078973
H        0.6621124300    0.0370324783   -1.5594068554
H        0.6478902443    0.5549316685    0.1668146879
H       -0.9699587157   -1.5259085129   -0.5130639679
H        0.0730875314   -1.6388112968    0.9229016122
23   

C        5.7076549793    1.7143763384    0.0998449642
C        4.9332281733    1.3507959857    1.2056500120
C        5.3667724734    1.2452108543   -1.1724371151
C        3.8195270993    0.5196815908    1.0366584415
C        4.2524011679    0.4136894703   -1.3367532001
C        3.4681396699    0.0426152271   -0.2364538470
C        2.2543581768   -2.1909835812   -0.3551128187
C        2.2821843361   -0.8317888254   -0.4169077549
C        0.8711597968   -2.7076317259   -0.6045376463
C        0.9008259448   -0.2623437947   -0.7007623089
C        0.0502639062   -1.4577798580   -0.2411738353
H        6.5699809151    2.3587581778    0.2285086874
H        5.1939934327    1.7125110976    2.1937189253
H        5.9644415007    1.5255284646   -2.0322791437
H        3.2189089830    0.2392798932    1.8940301221
H        3.9891362418    0.0520731462   -2.3238506416
H        3.1147822199   -2.8085090625   -0.1237218923
H        0.6138935278   -3.5685485697    0.0204252087
H        0.7556197855   -2.9542837966   -1.6651669250
H        0.7866320538   -0.0864629168   -1.7750667200
H        0.6825121609    0.6468423709   -0.1318154189
H       -0.9614895862   -1.4609764952   -0.6589078859
H       -0.0228623409   -1.4141754565    0.8508320097
23   

C        5.6952041081    1.7204545838    0.1125924774
C        5.0283490365    1.1930278610    1.2223411524
C        5.2568758475    1.4042072729   -1.1768126713
C        3.9263489223    0.3491941337    1.0401660595
C        4.1545990127    0.5593482692   -1.3541526815
C        3.4830149147    0.0170012399   -0.2500041438
C        2.2156160196   -2.1860269730   -0.1936366101
C        2.2960650298   -0.8501953583   -0.4424731742
C        0.8358371036   -2.6976549773   -0.4700875485
C        0.9529046346   -0.2895329777   -0.8851059800
C        0.0360891059   -1.3908394902   -0.3282698024
H        6.5481154941    2.3751552997    0.2515282522
H        5.3622247604    1.4391089358    2.2238828282
H        5.7687822628    1.8145039990   -2.0397867208
H        3.4059325401   -0.0532428422    1.9013626969
H        3.8141895150    0.3198663119   -2.3547199020
H        3.0328488860   -2.7845860091    0.1924130945
H        0.5096483645   -3.4625899528    0.2415372126
H        0.7818585824   -3.0781357717   -1.4955006783
H        0.9082699765   -0.2555167480   -1.9782181672
H        0.7318448324    0.6927077565   -0.4556838509
H       -0.9475808908   -1.4244527940   -0.8072413752
H       -0.1023857948   -1.2001110135    0.7414033256
23   

C        5.6866611441    1.7274124498    0.1228401152
C        5.1242539334    1.0570957719    1.2129133571
C        5.1474466178    1.5513403366   -1.1548353253
C        4.0265358129    0.2095543460    1.0225660558
C        4.0498158015    0.7024179498   -1.3411669761
C        3.4840031792    0.0134044768   -0.2588623392
C        2.1737955957   -2.1484942938   -0.0572689212
C        2.3008388837   -0.8513616009   -0.4529803963
C        0.8051895752   -2.6710303228   -0.3663796498
C        0.9990084558   -0.3301332469   -1.0435278310
C        0.0254192689   -1.3465282085   -0.4257405382
H        6.5362750931    2.3849377959    0.2684772017
H        5.5353865202    1.1958195901    2.2063114064
H        5.5775855358    2.0736474950   -2.0017660431
H        3.5867035648   -0.3003299149    1.8716160223
H        3.6327350159    0.5734243701   -2.3329511158
H        2.9484378246   -2.7092204500    0.4532261343
H        0.4179764931   -3.3457924584    0.4034990553
H        0.8102508888   -3.1647594814   -1.3437968118
H        1.0237989204   -0.4230812240   -2.1338473862
H        0.7707576600    0.6981537027   -0.7457977856
H       -0.9263699853   -1.4215214514   -0.9611020401
H       -0.1762494629   -1.0322732523    0.6040027632
23   

C        5.6791240660    1.7308084505    0.1299979484
C        5.2140489961    0.9462453177    1.1886838768
C        5.0406800421    1.6704298175   -1.1116519793
C        4.1142715815    0.1004074410    1.0029612280
C        3.9412294052    0.8231543474   -1.2942997107
C        3.4691876097    0.0196370864   -0.2447253227
C        2.1207455063   -2.1023965421    0.0732743049
C        2.2924859941   -0.8486042713   -0.4338548388
C        0.7717342630   -2.6464407502   -0.2815846263
C        1.0423499095   -0.3878491906   -1.1694172031
C        0.0143095850   -1.3308727578   -0.5251178978
H        6.5305298583    2.3867299252    0.2723722627
H        5.7025732459    0.9947588374    2.1551750000
H        5.3959732097    2.2807012345   -1.9341210794
H        3.7533687622   -0.4957215168    1.8325859430
H        3.4525116222    0.7852774860   -2.2605724039
H        2.8495122584   -2.6196726810    0.6865730444
H        0.3227264865   -3.2408439975    0.5203100391
H        0.8405763463   -3.2332557625   -1.2035700076
H        1.1451838802   -0.5933742396   -2.2396242607
H        0.8031050821    0.6662390230   -0.9967270751
H       -0.8983872581   -1.4532100664   -1.1168517877
H       -0.2548404459   -0.9148144954    0.4518072252
23   

C        5.7053890762    1.7361097463    0.0561663075
C        5.0121521667    1.7604498756   -1.1560066097
C        5.2388710209    0.9408608019    1.1052956573
C        3.8531983778    0.9920259600   -1.3164087780
C        4.0793388454    0.1735473058    0.9425378837
C        3.3636531262    0.1897129285   -0.2672796349
C        1.1060796290   -0.3840158571   -1.2742335000
C        2.1527460967   -0.6308468774   -0.4338707671
C        0.0716524687   -1.4625527961   -1.1820705655
C        1.9406126267   -1.9410672215    0.3108802689
C        0.9369048970   -2.6106624891   -0.6399227791
H        6.6031903865    2.3307469516    0.1816854894
H        5.3730965153    2.3727356711   -1.9745063266
H        5.7748364736    0.9177993901    2.0472839089
H        3.3341622543    1.0143162307   -2.2667160136
H        3.7316741082   -0.4342153376    1.7690960179
H        1.0415513168    0.4641908154   -1.9454585634
H       -0.3830471913   -1.7065189553   -2.1473152072
H       -0.6965280815   -1.1767849673   -0.4558556160
H        1.4836555433   -1.7435146133    1.2858073627
H        2.8569183295   -2.5294582721    0.4220965543
H        0.3580002904   -3.4128204519   -0.1713701057
H        1.5006438011   -3.0300591373   -1.4803289339
23   

C        5.7041759468    1.7435234770    0.0606055898
C        4.9430441144    1.8737049030   -1.1018906482
C        5.3132040407    0.8334916104    1.0438345883
C        3.7936892227    1.0947467247   -1.2794182368
C        4.1632556685    0.0556860575    0.8643857809
C        3.3793782981    0.1687438242   -0.3003233518
C        1.1697807093   -0.4687914415   -1.3866713532
C        2.1709597129   -0.6530664534   -0.4754842674
C        0.1026816384   -1.5088867514   -1.2416236878
C        1.8821376580   -1.8757538466    0.3841812108
C        0.9060430229   -2.6149164191   -0.5429369338
H        6.5945050577    2.3463962140    0.1993763879
H        5.2429776304    2.5781404601   -1.8693078071
H        5.8999775989    0.7298258004    1.9494336271
H        3.2258674864    1.2109177196   -2.1936032785
H        3.8822738683   -0.6349087360    1.6496144459
H        1.1487773647    0.3117066944   -2.1373735725
H       -0.3097898902   -1.8390400575   -2.2001919700
H       -0.6926398176   -1.1334926470   -0.5891759608
H        1.3862580054   -1.5687362500    1.3106195699
H        2.7703796775   -2.4785408751    0.5978612873
H        0.2820790359   -3.3504930363   -0.0255089958
H        1.4969758682   -3.1318751893   -1.3068405799
23   

C        5.6942940539    1.7499713864    0.0641458358
C        4.8542905885    1.9846063462   -1.0241078176
C        5.3886118037    0.7274360658    0.9619915770
C        3.7135819957    1.1960431672   -1.2138379133
C        4.2471289711   -0.0599003576    0.7702995301
C        3.3840991549    0.1506362763   -0.3256557798
C        1.2336870907   -0.5614678144   -1.4899334247
C        2.1803592564   -0.6780998488   -0.5108310367
C        0.1310736057   -1.5570689699   -1.3065558779
C        1.8152727150   -1.8086268234    0.4413892663
C        0.8611417441   -2.6071631613   -0.4592345713
H        6.5781476775    2.3600062158    0.2126662376
H        5.0848189686    2.7796088471   -1.7240735973
H        6.0354461099    0.5430832545    1.8121711877
H        3.0827378906    1.4058819434   -2.0675624516
H        4.0439014139   -0.8353317397    1.4970274773
H        1.2700727379    0.1423777086   -2.3120551549
H       -0.2374119461   -1.9702472296   -2.2507704290
H       -0.6876968265   -1.1005329697   -0.7406487652
H        1.2888402173   -1.4043417896    1.3119322380
H        2.6674689440   -2.4219047930    0.7488387090
H        0.1882576711   -3.2700945314    0.0938465527
H        1.4719901264   -3.2143113307   -1.1361078828
