29   

C        3.0826994645   -2.8224358542    0.6824719885
C        2.4348553579   -1.6459137670    0.2974000205
C        2.8879763461   -3.3321590133    1.9688445356
C        1.5907199916   -0.9835318718    1.1958105775
C        2.0518798998   -2.6628062510    2.8695230458
C       -0.1564723874   -4.4159076771    5.7002882983
C       -0.0362222694   -5.6840311723    5.1260088520
C       -1.3779016502   -3.6769894504    3.7556139919
C        1.3909331718   -1.4815425091    2.4939293585
C       -0.8168840819   -3.3948950915    5.0095210967
C       -0.5720647446   -5.9581038934    3.8610771306
C       -1.2559358898   -4.9419842919    3.1692845899
C        0.5091501165   -0.7873169015    3.4275816395
C        0.3878060838   -0.8933446838    4.8032310948
O       -2.2150338539   -1.0961777682    5.3472879007
O       -0.6351158474   -1.7086356844    7.1427846038
S       -0.9261336337   -1.7117408648    5.7003690675
Cl      -0.3798184398   -7.5537199412    3.1681916235
Cl      -1.9469703731   -5.2270594472    1.5864044182
H        3.7342361891   -3.3377965941   -0.0145411468
H        2.5869960442   -1.2451348472   -0.6985349854
H        3.3848471237   -4.2476268936    2.2694877789
H        1.0973879712   -0.0709517345    0.8796516964
H        1.9105045418   -3.0725976716    3.8630994590
H        0.2680095631   -4.2218141857    6.6825573714
H        0.4812051952   -6.4703606500    5.6629914758
H       -1.9097793647   -2.8990172189    3.2149132121
H       -0.1641099130   -0.0649758129    2.9764829143
H        1.1931050267   -0.5418944657    5.4284397772
29   

C        2.8592553672   -3.1018637804    0.8813569342
C        2.1714873569   -1.9879132326    0.3940518592
C        2.8011488396   -3.4112406107    2.2423412373
C        1.4211090107   -1.1901115260    1.2651161558
C        2.0569984274   -2.6077987404    3.1132460887
C       -0.0687569634   -4.3959104870    5.5516617191
C        0.1167066174   -5.6110219953    4.8869147150
C       -1.2397979352   -3.5468250229    3.6211789601
C        1.3501342919   -1.4909951026    2.6357523453
C       -0.7337702838   -3.3441334734    4.9134578441
C       -0.3569350770   -5.8006731132    3.5822009079
C       -1.0492075995   -4.7561486738    2.9435460064
C        0.5415697750   -0.6668667387    3.5329816962
C        0.3628656861   -0.7591282830    4.8918645275
O       -2.2271663718   -1.1357908444    5.4093103647
O       -0.6267152787   -1.7998182280    7.1585111488
S       -0.9112073709   -1.7173103522    5.7170195953
Cl      -0.0761095484   -7.3272272248    2.7738636660
Cl      -1.6609835996   -4.9343433332    1.3131733560
H        3.4363591826   -3.7235041543    0.2057726126
H        2.2172309389   -1.7427613022   -0.6611643033
H        3.3322326278   -4.2756929017    2.6243073175
H        0.8904959190   -0.3328635836    0.8656421100
H        2.0257801585   -2.8628758343    4.1660072869
H        0.3118710774   -4.2652111567    6.5619233974
H        0.6394977457   -6.4204910482    5.3825332796
H       -1.7745957374   -2.7454664051    3.1192683397
H        0.0324388256    0.1714542515    3.0679287442
H        0.9830448795   -0.1753720244    5.5538311043
29   

C        2.7131136110   -3.3409439293    1.1775316466
C        1.9091167266   -2.3682088146    0.5785093802
C        2.8358665030   -3.3779859547    2.5683455196
C        1.2221852085   -1.4404734489    1.3696791197
C        2.1492788102   -2.4491446134    3.3578162515
C        0.0574209642   -4.3460313699    5.2773920941
C        0.2663172801   -5.4887661143    4.5007821755
C       -1.2197471631   -3.3824330836    3.4724611268
C        1.3233561206   -1.4752888117    2.7703028578
C       -0.6698825242   -3.2703358661    4.7578243324
C       -0.2444216469   -5.5812207952    3.1996657450
C       -1.0032728888   -4.5164009632    2.6817262193
C        0.5569883417   -0.5315974344    3.5915111066
C        0.3097579057   -0.6052979790    4.9287815607
O       -2.2247170717   -1.1850389576    5.5235394115
O       -0.5132493577   -1.9180916304    7.1197879678
S       -0.8679583327   -1.7244330323    5.7045950168
Cl       0.0751323449   -7.0127780918    2.2452929679
Cl      -1.6620231648   -4.5734950369    1.0609896762
H        3.2403659906   -4.0639545320    0.5650753744
H        1.8131358876   -2.3360188928   -0.5010103327
H        3.4609933737   -4.1293470168    3.0370799632
H        0.5950987680   -0.6997422655    0.8860001777
H        2.2556582304   -2.4930513209    4.4357589902
H        0.4712287499   -4.2878643279    6.2811868763
H        0.8397100997   -6.3150134594    4.9037317922
H       -1.8042905962   -2.5636091901    3.0633242315
H        0.1882449408    0.3564041312    3.0878941512
H        0.6721192386    0.1706944208    5.5850459435
29   

C        2.6398351085   -3.4083047184    1.2898155476
C        1.8321975270   -2.4596227557    0.6579165432
C        2.7872911933   -3.3782237758    2.6784955374
C        1.1657270983   -1.4892841334    1.4146858295
C        2.1195124318   -2.4078866567    3.4336458432
C        0.0629440867   -4.3683702324    5.1679436376
C        0.2741925722   -5.4946206128    4.3688085218
C       -1.2237410829   -3.3736521164    3.3869083749
C        1.2882190430   -1.4597054698    2.8135285382
C       -0.6702083921   -3.2848680275    4.6723714369
C       -0.2399064139   -5.5632022535    3.0678261157
C       -1.0044275214   -4.4911599403    2.5731951760
C        0.5491190935   -0.4630326373    3.6015159598
C        0.1777163589   -0.5370859577    4.9009296734
O       -2.2805939944   -1.3025392819    5.5758178216
O       -0.4662211815   -1.9905620260    7.0577201583
S       -0.8888016516   -1.7705383933    5.6650201126
Cl       0.0816025327   -6.9750839106    2.0852591991
Cl      -1.6686694629   -4.5201896436    0.9540357129
H        3.1514322826   -4.1640826717    0.7042364574
H        1.7178940659   -2.4789373737   -0.4201285198
H        3.4169546371   -4.1094660804    3.1722538375
H        0.5365351722   -0.7665271819    0.9071208703
H        2.2451597372   -2.3968752282    4.5105805484
H        0.4773644020   -4.3300452080    6.1724606102
H        0.8510547281   -6.3265714381    4.7546867904
H       -1.8148955184   -2.5503986462    2.9970729616
H        0.3190668961    0.4679807175    3.0931356520
H        0.3357366418    0.3203720583    5.5368818587
29   

C        3.1687979779   -3.5311313917    1.9127093876
C        2.1540660884   -3.0355749121    1.0893728315
C        3.3012430654   -3.0487729135    3.2173807335
C        1.2732143780   -2.0599696772    1.5701527504
C        2.4156571593   -2.0787888302    3.6991833045
C        0.1750358174   -4.2717289367    4.4997140403
C        0.0526958523   -5.2760963728    3.5388145202
C       -1.7907049056   -3.1982662866    3.6067917000
C        1.3863902772   -1.5765131221    2.8832335265
C       -0.7342745260   -3.2084895401    4.5276759421
C       -0.9793941213   -5.2466675504    2.5944862997
C       -1.9180208936   -4.1986358798    2.6340181992
C        0.4412454624   -0.5694488990    3.3935683275
C        0.0186328725   -0.4506164304    4.6670491825
O       -1.7855718005   -1.4768793580    6.3437892976
O        0.5436076903   -2.1463526202    6.6831267128
S       -0.5093428163   -1.8299401467    5.7032337407
Cl      -1.0759615736   -6.5067131029    1.3838645080
Cl      -3.2289813215   -4.1133796430    1.4776506667
H        3.8530871813   -4.2849033235    1.5393021774
H        2.0476977688   -3.4087226624    0.0769241313
H        4.0911160844   -3.4238138522    3.8586541568
H        0.4870876503   -1.6914987591    0.9205456063
H        2.5331926547   -1.7134394901    4.7147755678
H        0.9949776071   -4.3044389014    5.2128028240
H        0.7746900656   -6.0835084114    3.5139307114
H       -2.5169186144   -2.3910924635    3.6291847150
H        0.0788584272    0.1635206001    2.6799716745
H       -0.2507136534    0.5177427829    5.0599954284
29   

C        3.1562719846   -3.5490296517    1.9770106936
C        2.1471399019   -3.0551800640    1.1457038868
C        3.3030297253   -3.0374760162    3.2690973597
C        1.2865222191   -2.0520875312    1.6060768658
C        2.4369224603   -2.0403282666    3.7306297188
C        0.1861970304   -4.2762575075    4.4251875783
C        0.0419375563   -5.2799587346    3.4667929286
C       -1.7962571336   -3.1990981000    3.5753045517
C        1.4135482124   -1.5401628956    2.9068730432
C       -0.7215537790   -3.2124263655    4.4745853652
C       -1.0105128096   -5.2489642407    2.5454087866
C       -1.9459753116   -4.1990060219    2.6050667750
C        0.4914195913   -0.4965766593    3.3940130478
C       -0.0667401049   -0.4280106557    4.6129763685
O       -1.7224523793   -1.5474289037    6.3763637854
O        0.6443107931   -2.1333401674    6.5668095305
S       -0.4748764917   -1.8412608197    5.6546260127
Cl      -1.1363094169   -6.5097758150    1.3382502846
Cl      -3.2818679411   -4.1119067739    1.4777251286
H        3.8253857382   -4.3237563576    1.6193491953
H        2.0295522671   -3.4505067860    0.1429624348
H        4.0888998565   -3.4104688451    3.9164805686
H        0.5047608128   -1.6837283368    0.9511375712
H        2.5657716786   -1.6509131835    4.7358735025
H        1.0210481372   -4.3108047085    5.1206628518
H        0.7620260508   -6.0884438338    3.4266175116
H       -2.5207913477   -2.3911366337    3.6135438034
H        0.2342392524    0.2870772762    2.6886371013
H       -0.4688158013    0.5073026022    4.9712091243
29   

C        3.1287505414   -3.5670009973    2.0143992858
C        2.1204883371   -3.0584923205    1.1908207262
C        3.3016968644   -3.0481544841    3.3005089708
C        1.2874825675   -2.0331969926    1.6528834093
C        2.4624521759   -2.0288921854    3.7637849156
C        0.1978142721   -4.2849927855    4.4102560592
C        0.0558772587   -5.2946735936    3.4577630604
C       -1.7934612727   -3.2236510093    3.5615579928
C        1.4412729649   -1.5138681593    2.9476182170
C       -0.7163888187   -3.2267610556    4.4580255282
C       -1.0001376461   -5.2747804220    2.5401559310
C       -1.9409822342   -4.2295354671    2.5971875223
C        0.5488647022   -0.4412576017    3.4356859218
C       -0.1477296657   -0.4286973687    4.5801756972
O       -1.7124964765   -1.5972129841    6.3905532174
O        0.6760037357   -2.1100362011    6.5132363198
S       -0.4769931785   -1.8506471920    5.6335721607
Cl      -1.1237149295   -6.5433702389    1.3409327294
Cl      -3.2814498011   -4.1560673319    1.4742694675
H        3.7767564958   -4.3588120714    1.6553220660
H        1.9821461834   -3.4593441827    0.1929315183
H        4.0868776154   -3.4327046462    3.9419166629
H        0.5061028152   -1.6522121434    1.0047209115
H        2.6100187150   -1.6334286414    4.7640756255
H        1.0351898806   -4.3109611449    5.1030198558
H        0.7803221421   -6.0993197149    3.4195202431
H       -2.5222814009   -2.4195240108    3.5976340436
H        0.4020974455    0.3987277225    2.7643360084
H       -0.6545874363    0.4713358959    4.8930501947
29   

C        1.9965160549   -3.0252542575    0.8732879256
C        1.0767381814   -1.9731419975    0.8794629443
C        2.7327784514   -3.3104575484    2.0264014654
C        0.8875909064   -1.2144472919    2.0399305718
C        2.5479954417   -2.5454425617    3.1836340921
C       -0.2559554988   -3.9891468741    5.4252243052
C        0.1648932664   -5.2851280623    5.1154661662
C       -0.9351462043   -3.6869397564    3.1319945509
C        1.6157291648   -1.4970033359    3.2072990660
C       -0.7927322817   -3.1694820400    4.4278572623
C        0.0494672397   -5.7904252871    3.8142605912
C       -0.5155724127   -4.9829564158    2.8112373759
C        1.4060280251   -0.7056417971    4.4417799888
C        0.2770703249   -0.6177839738    5.1553639018
O       -1.9191764261   -0.8281881201    3.6149985256
O       -2.1283402694   -1.3930895327    5.9861338549
S       -1.2765517802   -1.4461422823    4.7877277856
Cl       0.6105131757   -7.4104956973    3.4629130320
Cl      -0.6906223640   -5.5633359409    1.1688111354
H        2.1368826621   -3.6195858354   -0.0228245340
H        0.5054008687   -1.7456545047   -0.0136287744
H        3.4445110193   -4.1282719190    2.0248372323
H        0.1677909723   -0.4016401355    2.0325432538
H        3.1208521860   -2.7811405878    4.0733937773
H       -0.1561535328   -3.6147648688    6.4403297328
H        0.5912913410   -5.9117176568    5.8897231953
H       -1.3634614010   -3.0676915003    2.3488396165
H        2.2888964006   -0.2324744025    4.8593945218
H        0.2505106105   -0.0180601466    6.0522102790
29   

C        2.0102741294   -3.0174813522    0.8421707142
C        1.0819326533   -1.9741681835    0.8870195504
C        2.7587925149   -3.3297949282    1.9801655286
C        0.8955893425   -1.2523130627    2.0710081044
C        2.5764146707   -2.6019748589    3.1616112209
C       -0.2753518310   -3.9676377150    5.4410679645
C        0.1527223953   -5.2651960542    5.1481845928
C       -0.9451014719   -3.6950193504    3.1412547794
C        1.6336162947   -1.5642902764    3.2254498053
C       -0.8102288422   -3.1616464470    4.4315575049
C        0.0466371965   -5.7855781556    3.8521060002
C       -0.5172871437   -4.9922906526    2.8372173072
C        1.4256990953   -0.8172853644    4.4828525855
C        0.2570139186   -0.5880982184    5.0975551352
O       -1.9595246196   -0.8398188967    3.5937224206
O       -2.1324872953   -1.3618180802    5.9762642088
S       -1.2969987932   -1.4340557103    4.7674585603
Cl       0.6181081814   -7.4064036440    3.5216796030
Cl      -0.6797381469   -5.5912443170    1.2002185906
H        2.1486590506   -3.5831355641   -0.0726140103
H        0.5022000649   -1.7241688109    0.0054022490
H        3.4783752001   -4.1400785803    1.9479247085
H        0.1710962858   -0.4439813602    2.0901347682
H        3.1593615047   -2.8601064788    4.0384754965
H       -0.1819203417   -3.5809897535    6.4522096227
H        0.5781235840   -5.8810446773    5.9315579744
H       -1.3722431785   -3.0868314041    2.3488105916
H        2.3218457043   -0.4671368818    4.9848930836
H        0.2125064294    0.0919237859    5.9344243918
29   

C        2.0500920477   -3.0038588024    0.8249381796
C        1.1024230595   -1.9793906346    0.8903527989
C        2.8025084937   -3.3265186126    1.9574059509
C        0.9005905914   -1.2869688230    2.0891352853
C        2.6043177474   -2.6285489939    3.1542819808
C       -0.2922343852   -3.9424601280    5.4555835258
C        0.1465660422   -5.2371998361    5.1659307512
C       -0.9669631286   -3.6825257602    3.1556259705
C        1.6419007246   -1.6102842881    3.2391436890
C       -0.8340333600   -3.1437027284    4.4439580730
C        0.0446526583   -5.7618180040    3.8711722494
C       -0.5273253510   -4.9764611795    2.8546454901
C        1.4140846867   -0.9000541771    4.5103590949
C        0.2256777130   -0.5425296280    5.0241797964
O       -2.0422704332   -0.8490921334    3.6163853744
O       -2.1174425925   -1.3328953947    6.0121144987
S       -1.3288064744   -1.4169174453    4.7729807657
Cl       0.6314962909   -7.3778595148    3.5443110224
Cl      -0.6841740016   -5.5804537238    1.2189820824
H        2.2007272808   -3.5465596514   -0.1017350082
H        0.5198587682   -1.7211037875    0.0129898979
H        3.5375194998   -4.1220034217    1.9087693230
H        0.1608921340   -0.4929844192    2.1226401156
H        3.1906816289   -2.8960497486    4.0260211847
H       -0.2012429926   -3.5519232480    6.4655128246
H        0.5777882140   -5.8473146443    5.9506053339
H       -1.4002187799   -3.0805397593    2.3617284410
H        2.2977437043   -0.6499070020    5.0885122765
H        0.1742179812    0.2258148327    5.7803074461
29   

C        2.1049259768   -3.0165468840    0.8194339759
C        1.1349712111   -2.0134237802    0.8865691803
C        2.8508216695   -3.3378842700    1.9565480096
C        0.9047847476   -1.3407812902    2.0913870300
C        2.6238711546   -2.6602307511    3.1600261982
C       -0.3125641907   -3.9363463758    5.4516064154
C        0.1338878636   -5.2234056760    5.1404943299
C       -1.0250369986   -3.6566764681    3.1651981828
C        1.6397857365   -1.6628277964    3.2464335943
C       -0.8758769361   -3.1308749034    4.4570807936
C        0.0185654106   -5.7335615011    3.8410856692
C       -0.5766845364   -4.9423875487    2.8425174675
C        1.3773105948   -0.9788394459    4.5233383938
C        0.1853130969   -0.5072739618    4.9364785143
O       -2.1744172620   -0.8602871919    3.7054250430
O       -2.0688485927   -1.3258177710    6.1046619853
S       -1.3724491886   -1.4097516955    4.8113919302
Cl       0.6183350895   -7.3388704707    3.4861203152
Cl      -0.7501663494   -5.5281386375    1.2019565547
H        2.2777886717   -3.5437424501   -0.1122921628
H        0.5571422435   -1.7568085172    0.0056044570
H        3.6031504566   -4.1169052558    1.9062763363
H        0.1466281198   -0.5644395577    2.1258700969
H        3.2055005724   -2.9278996022    4.0348498862
H       -0.2099844684   -3.5561752328    6.4644789193
H        0.5825181197   -5.8383440588    5.9115307878
H       -1.4760005329   -3.0498002075    2.3849845780
H        2.2311493274   -0.8111921142    5.1717894329
H        0.1387024752    0.3547690955    5.5840312934
29   

C        2.2202083388   -3.0952101743    0.8620629650
C        1.2037182888   -2.1374438485    0.8888486473
C        2.9581764747   -3.3564008344    2.0195214070
C        0.9199765562   -1.4498436113    2.0736201094
C        2.6762432385   -2.6648540618    3.2033596079
C       -0.2886194343   -3.9419126582    5.4108099477
C        0.1573724871   -5.2076814420    5.0228316266
C       -1.1553176849   -3.5902752800    3.1882264297
C        1.6462131362   -1.7119363057    3.2490636939
C       -0.9278080395   -3.1101052483    4.4859991121
C       -0.0330381664   -5.6703304894    3.7146991379
C       -0.7065636886   -4.8542947280    2.7880931079
C        1.3243839411   -1.0170007913    4.5043598840
C        0.1282838398   -0.4729685229    4.8271813230
O       -2.3850730985   -0.8671717412    3.9750866567
O       -1.8985304855   -1.3561749154    6.3241037714
S       -1.4112127850   -1.4088173065    4.9367836589
Cl       0.5727577071   -7.2478064616    3.2594942127
Cl      -0.9744129329   -5.3811312261    1.1403941192
H        2.4353703000   -3.6334917287   -0.0543831231
H        0.6316619994   -1.9284104906   -0.0082500471
H        3.7473710183   -4.0994945881    2.0001905421
H        0.1263537288   -0.7094877247    2.0772756662
H        3.2529749973   -2.8864898529    4.0941360733
H       -0.1250142671   -3.5968828206    6.4283974758
H        0.6659963652   -5.8417729088    5.7391824158
H       -1.6665161383   -2.9628117067    2.4634840514
H        2.1380150767   -0.8782726668    5.2089090317
H        0.0834612812    0.4974816208    5.2968852046
29   

C        2.6796436574   -3.3410475365    1.2095238312
C        1.4312714125   -2.7211857713    1.1206517683
C        3.4744312400   -3.1394309374    2.3407283596
C        0.9771495621   -1.9069274060    2.1636513651
C        3.0159062363   -2.3287723714    3.3856725572
C       -0.1461109632   -3.9491026290    4.9863897749
C        0.1561981611   -5.1452563564    4.3341459727
C       -1.7347699876   -3.4214808596    3.2497003643
C        1.7560300269   -1.7111318615    3.3170730880
C       -1.0762929427   -3.0619842885    4.4338698075
C       -0.4700540066   -5.4866336316    3.1300325308
C       -1.4357392133   -4.6189498241    2.5864261836
C        1.2673555624   -0.8976570741    4.4350585254
C        0.0007845896   -0.4420834512    4.6481393599
O       -2.6472926730   -0.8559471465    4.7480846046
O       -1.3133164122   -1.5622852338    6.6817751245
S       -1.3825302856   -1.4441575034    5.2166551981
Cl      -0.0356388493   -6.9789231070    2.3257721336
Cl      -2.2524145494   -4.9996921341    1.0862701896
H        3.0306815041   -3.9739235613    0.4019391387
H        0.8118205507   -2.8723011859    0.2436342399
H        4.4465049203   -3.6147082470    2.4095789803
H        0.0082029747   -1.4291538741    2.0738926388
H        3.6440761773   -2.1905909653    4.2586272046
H        0.3588324410   -3.6971358937    5.9152777496
H        0.8943352781   -5.8159976444    4.7574751255
H       -2.4772300374   -2.7533578478    2.8217839463
H        2.0151135474   -0.5639017166    5.1473989071
H       -0.1883086944    0.6196859856    4.6808822382
29   

C        3.0106439839   -3.2110447393    1.1641763053
C        1.6682992115   -2.8284998013    1.1086055661
C        3.7867565380   -2.8572325785    2.2706947310
C        1.1045536725   -2.0938028896    2.1572794506
C        3.2187700643   -2.1294626304    3.3227070300
C       -0.2839716036   -3.9985595915    4.9700851644
C       -0.1006148342   -5.2144842613    4.3104590407
C       -1.9594718173   -3.3868623073    3.3460638545
C        1.8688635228   -1.7415967136    3.2828036226
C       -1.2009654528   -3.0626878398    4.4792935369
C       -0.8328765262   -5.5262664559    3.1593358735
C       -1.7803685035   -4.6044081845    2.6757444416
C        1.2769913305   -1.0028857039    4.3975854594
C       -0.0020855130   -0.5246148487    4.5430945662
O       -2.6424354722   -0.7911168570    4.9282612993
O       -1.1427322561   -1.5482121301    6.7284015371
S       -1.3654795570   -1.4326158144    5.2783610517
Cl      -0.5526147726   -7.0506633835    2.3466201671
Cl      -2.7264260827   -4.9466168804    1.2438087448
H        3.4485566810   -3.7784939483    0.3504144463
H        1.0616084128   -3.1005995243    0.2520858327
H        4.8303858827   -3.1480669379    2.3144711741
H        0.0631451521   -1.8014141223    2.0923304205
H        3.8371553784   -1.8679387217    4.1742554686
H        0.2999240237   -3.7727084008    5.8587592075
H        0.6245996146   -5.9257886254    4.6878663282
H       -2.6914272980   -2.6788519639    2.9665815695
H        1.9482237207   -0.7636588415    5.2162974586
H       -0.2374722112    0.4860749064    4.2486710211
29   

C        3.4360720926   -2.9931752568    1.0958836468
C        2.0400432130   -2.9330201260    1.0894241414
C        4.1487781855   -2.4459179797    2.1659498118
C        1.3594647908   -2.3210619592    2.1479419699
C        3.4660374305   -1.8435452810    3.2288734201
C       -0.4912264354   -4.1046840535    4.9857717410
C       -0.4760875261   -5.3499861995    4.3557703764
C       -2.1880871726   -3.3609210422    3.4406522066
C        2.0632571542   -1.7704198418    3.2319095748
C       -1.3374043029   -3.0918405538    4.5217332726
C       -1.3070668327   -5.6130311074    3.2605857813
C       -2.1783472472   -4.6075885431    2.8007841364
C        1.3546585436   -1.1353721192    4.3402092845
C        0.0527815110   -0.6746322947    4.4313703258
O       -2.5569464702   -0.7094243891    5.0314421199
O       -0.9779284187   -1.5577243411    6.7279423859
S       -1.3104751745   -1.4436780373    5.2988724073
Cl      -1.2444842425   -7.1825335668    2.4886124764
Cl      -3.2427671334   -4.8855720144    1.4395656041
H        3.9643888969   -3.4614675131    0.2727412792
H        1.4827150968   -3.3597454562    0.2629939740
H        5.2323180307   -2.4857470245    2.1714875951
H        0.2763653714   -2.2825877894    2.1262936491
H        4.0359590627   -1.4210321590    4.0491162962
H        0.1624106895   -3.9206309723    5.8348783396
H        0.1901507083   -6.1254219713    4.7155796545
H       -2.8661247544   -2.5904746778    3.0828985101
H        1.9403631858   -0.9945234402    5.2432423699
H       -0.2342158538    0.1885164886    3.8519736394
