20   
Generated by ForceBalance from scan.xyz: Frame 1 of 24
C        7.1886346592   -2.1142413367   -0.7160003839
C        6.6817761596   -1.0789346884   -1.5085007276
C        6.2963642683   -2.9892935675   -0.0909145295
C        5.3049947894   -0.9121870680   -1.6587523450
C        4.9142461481   -2.8431796908   -0.2407952416
C        4.4121652383   -1.7879963394   -1.0188642193
C        1.9416446383   -1.4981044210    1.3092220305
N        3.0265165656   -1.5752451240   -1.2175063958
O        1.9272662747   -3.6589480212   -0.2033144813
O        0.5599926330   -1.6348371483   -0.9637622460
S        1.7470002247   -2.2150306953   -0.3363660365
H        8.2606349169   -2.2419603911   -0.5970370657
H        7.3582961821   -0.3931763043   -2.0117097474
H        6.6742274602   -3.8111197098    0.5117075707
H        4.9192720542   -0.1001876897   -2.2718121282
H        4.2401742359   -3.5654196960    0.2049785207
H        1.1718254453   -1.9433619764    1.9419107772
H        1.8059093619   -0.4189982739    1.2324306054
H        2.9351016198   -1.7481156186    1.6845204550
H        2.7404700758   -0.7908868406   -1.7944326928
20   
Generated by ForceBalance from scan.xyz: Frame 2 of 24
C        7.1437230632   -2.0790726566   -0.6569162637
C        6.6207796413   -1.0125233453   -1.3951196445
C        6.2700739664   -3.0397946431   -0.1392005020
C        5.2442241186   -0.8987387225   -1.5949461086
C        4.8908818987   -2.9514059548   -0.3466429555
C        4.3713838212   -1.8630650659   -1.0657250176
C        2.0588262493   -1.4086680627    1.2643831964
N        2.9831636605   -1.7240388113   -1.3277844272
O        1.8971482822   -3.6773284710   -0.0746370503
O        0.5312784730   -1.6792611765   -0.9028180686
S        1.7422863424   -2.2431656341   -0.3069166538
H        8.2146311579   -2.1644691136   -0.4966213060
H        7.2834793175   -0.2598010621   -1.8138007774
H        6.6630866969   -3.8844730137    0.4205486938
H        4.8443117297   -0.0607360097   -2.1624529280
H        4.2294512048   -3.7295685439    0.0169717700
H        1.3133315238   -1.7771444432    1.9711326667
H        1.9511338561   -0.3341201300    1.1128468906
H        3.0639042489   -1.6655055908    1.6016574435
H        2.6982768674   -0.9016224673   -1.8518757346
20   
Generated by ForceBalance from scan.xyz: Frame 3 of 24
C        7.0953472947   -2.0659432355   -0.6098382912
C        6.5428857976   -0.9535983063   -1.2523485843
C        6.2594335082   -3.1177400974   -0.2204224509
C        5.1673721186   -0.8862351061   -1.4837886167
C        4.8854954060   -3.0754612787   -0.4699287132
C        4.3333956808   -1.9451717458   -1.0929655784
C        2.1424381098   -1.2754950402    1.2105049607
N        2.9421626138   -1.8680567449   -1.3848002962
O        1.9123251844   -3.6682951180    0.1183920611
O        0.5060852450   -1.7580002905   -0.8391092166
S        1.7457348513   -2.2643540082   -0.2499613492
H        8.1641393269   -2.1153821788   -0.4220071003
H        7.1790947250   -0.1303817091   -1.5663564533
H        6.6800174663   -3.9933729888    0.2669942656
H        4.7393195362   -0.0120420471   -1.9705989177
H        4.2452861492   -3.9068786695   -0.1972984850
H        1.4217099421   -1.5536299899    1.9812952094
H        2.0444278829   -0.2202509447    0.9529075927
H        3.1567849990   -1.5160920891    1.5311920014
H        2.6533081097   -1.0532254917   -1.9203980071
20   
Generated by ForceBalance from scan.xyz: Frame 4 of 24
C        7.0651424431   -2.0650800525   -0.5634910592
C        6.4730655704   -0.9129693768   -1.0901776782
C        6.2763850848   -3.1956704120   -0.3219681887
C        5.1014855815   -0.8852861224   -1.3556169625
C        4.9100349787   -3.1897156255   -0.6113169335
C        4.3183212696   -2.0255190287   -1.1234610011
C        2.2163980781   -1.1240046141    1.1221577705
N        2.9238634508   -2.0039347773   -1.4268031861
O        1.9809832384   -3.6260300738    0.3146321603
O        0.5036857078   -1.8497466862   -0.7882035269
S        1.7749581114   -2.2746532849   -0.2011753838
H        8.1298951455   -2.0833431573   -0.3482966971
H        7.0747032109   -0.0290554527   -1.2842950579
H        6.7297047576   -4.0981164004    0.0793666650
H        4.6388940821    0.0186567014   -1.7472444451
H        4.2972342858   -4.0683181260   -0.4426173220
H        1.5321768474   -1.3229293341    1.9487159458
H        2.0910949865   -0.1044337107    0.7555631276
H        3.2464445165   -1.3165492692    1.4241056058
H        2.6233024774   -1.2165725783   -1.9976073286
20   
Generated by ForceBalance from scan.xyz: Frame 5 of 24
C        7.0462920206   -2.0776287072   -0.5427487073
C        6.4058772791   -0.8943129612   -0.9250520065
C        6.3152341433   -3.2684868711   -0.4625605850
C        5.0381103227   -0.8995690965   -1.2117185594
C        4.9539381485   -3.2876611605   -0.7743474135
C        4.3146599257   -2.0995121182   -1.1518184218
C        2.2414952710   -0.9551157425    1.0060091182
N        2.9138576716   -2.1260870855   -1.4448628170
O        2.0906934629   -3.5434468328    0.5143293570
O        0.5060118059   -1.9687940589   -0.7407229195
S        1.8113431842   -2.2746073205   -0.1539355573
H        8.1077207930   -2.0718862848   -0.3105610694
H        6.9658566192    0.0348870838   -0.9880192804
H        6.8086060167   -4.1904436896   -0.1670112881
H        4.5340031783    0.0236467082   -1.4910149309
H        4.3756866441   -4.2038050278   -0.7214770431
H        1.5744823842   -1.0677303232    1.8624632964
H        2.0806090638    0.0080798078    0.5200328320
H        3.2803593434   -1.0807634659    1.3121464266
H        2.5972286883   -1.3804650824   -2.0625336316
20   
Generated by ForceBalance from scan.xyz: Frame 6 of 24
C        7.1642043828   -2.2322249208   -0.5709165608
C        6.4975780333   -1.0092995144   -0.4430384887
C        6.4516533756   -3.3780489049   -0.9414687386
C        5.1251400951   -0.9288314574   -0.6929333415
C        5.0756224420   -3.3062793219   -1.1693836056
C        4.4125569880   -2.0780935680   -1.0536298464
C        1.8382156971   -0.5374280760    0.7267133871
N        2.9994870141   -1.9671436829   -1.2886470731
O        2.5687725708   -3.0542083715    1.0656739149
O        0.6619379047   -2.5580480263   -0.5582216258
S        1.9480010595   -2.2007047150    0.0496197419
H        8.2330622446   -2.2922688357   -0.3847019157
H        7.0480375427   -0.1146065352   -0.1647580154
H        6.9641125259   -4.3315468951   -1.0361444784
H        4.6056038322    0.0236074750   -0.6375372781
H        4.5109741732   -4.2009539544   -1.4184137250
H        1.1437789902   -0.5953883459    1.5668679770
H        1.4616812686    0.1271924440   -0.0501696256
H        2.8267054900   -0.2369582320    1.0742916682
H        2.6510173501   -2.5779432082   -2.0278890802
20   
Generated by ForceBalance from scan.xyz: Frame 7 of 24
C        7.2278181523   -2.3130644282   -0.6680849253
C        6.5530179761   -1.1553949651   -0.2656252424
C        6.5066136565   -3.3796838819   -1.2135674298
C        5.1686965322   -1.0578491334   -0.4168194776
C        5.1176801387   -3.2980395650   -1.3400472628
C        4.4463295775   -2.1330874940   -0.9478892749
C        1.5818057282   -0.3997521064    0.5551668193
N        3.0284025471   -2.0220558828   -1.1129032003
O        2.7745998333   -2.5922993040    1.4306677392
O        0.8146765324   -2.8237693461   -0.2022495655
S        2.0140020999   -2.1243745047    0.2721729611
H        8.3065513565   -2.3823440800   -0.5588262264
H        7.1072311655   -0.3197549377    0.1532203322
H        7.0219636637   -4.2840028658   -1.5257248515
H        4.6504579912   -0.1453124011   -0.1373950400
H        4.5527835272   -4.1398216917   -1.7339575092
H        0.8809848871   -0.3901571379    1.3920504232
H        1.1176963745   -0.0083528526   -0.3496236032
H        2.4865572508    0.1510286504    0.8115910654
H        2.6452656354   -2.6800121592   -1.7907223260
20   
Generated by ForceBalance from scan.xyz: Frame 8 of 24
C        7.2640795723   -2.3278866442   -0.7253393896
C        6.5816790491   -1.2671698795   -0.1194236864
C        6.5395572796   -3.3164201789   -1.3973255136
C        5.1908331174   -1.1830880199   -0.1931749208
C        5.1450223439   -3.2533202244   -1.4526326647
C        4.4664232166   -2.1813857116   -0.8576591777
C        1.4715027302   -0.3216610967    0.3768261850
N        3.0472082912   -2.0917550978   -0.9826123827
O        2.8318347286   -2.2229770182    1.6166037357
O        0.8961632233   -2.8897046839    0.0736074359
S        2.0378990982   -2.0307406722    0.4043648312
H        8.3477144266   -2.3833696514   -0.6724957056
H        7.1351422783   -0.4938013800    0.4063658929
H        7.0564437786   -4.1484279142   -1.8679451997
H        4.6732604345   -0.3492062042    0.2701006511
H        4.5826486684   -4.0374235715   -1.9551435466
H        0.7879176285   -0.2053457431    1.2198760557
H        0.9595640361   -0.1447484677   -0.5688062347
H        2.3335567969    0.3359921624    0.4887692454
H        2.6496011825   -2.7954064591   -1.6026429669
20   
Generated by ForceBalance from scan.xyz: Frame 9 of 24
C        7.2677229930   -2.2088925173   -0.9495067891
C        6.1765852713   -2.9005660842   -1.4852402763
C        7.0450784855   -1.2297894089    0.0230299365
C        4.8771114802   -2.6327087890   -1.0509924759
C        5.7474444364   -0.9407183127    0.4499981347
C        4.6572511528   -1.6471047836   -0.0786349349
C        1.1595770086   -2.8235251468   -0.2743405653
N        3.3577452618   -1.3790724314    0.4384525138
O        2.3307831210   -1.1457013103   -1.9489331730
O        1.1604630149   -0.2030514169    0.1261801072
S        1.9641642735   -1.2341297504   -0.5366407558
H        8.2763649255   -2.4271676738   -1.2884717356
H        6.3344259378   -3.6597405167   -2.2466534714
H        7.8806391522   -0.6779338248    0.4452680331
H        4.0448616516   -3.1745412210   -1.4863586442
H        5.5797812340   -0.1664505827    1.1958015026
H        0.2469689538   -2.8149594751   -0.8732126951
H        0.9306951024   -2.9206409164    0.7866616904
H        1.8292136608   -3.6169331348   -0.6072483720
H        3.3276867752   -0.6359729515    1.1332679527
20   
Generated by ForceBalance from scan.xyz: Frame 10 of 24
C        7.2786200439   -2.2859821865   -0.9032512264
C        6.1769335068   -2.8648509230   -1.5394021613
C        7.0616568336   -1.3421764118    0.1054418987
C        4.8723406373   -2.5211369463   -1.1765103710
C        5.7639358831   -0.9832264926    0.4718545471
C        4.6606684509   -1.5747173123   -0.1632943541
C        1.2766875459   -2.8791365324   -0.2317872202
N        3.3637924373   -1.2246060143    0.3027292233
O        2.2374523428   -1.2218331269   -2.0527881704
O        1.0865062852   -0.2402756691    0.0106589160
S        1.9381221398   -1.2503368438   -0.6218542499
H        8.2888655150   -2.5608248033   -1.1924246654
H        6.3279074668   -3.5915606958   -2.3332511602
H        7.9043578602   -0.8756913443    0.6087359203
H        4.0376465138   -2.9631457412   -1.7074908009
H        5.6050279670   -0.2459640573    1.2561702000
H        0.3679405940   -2.9999536900   -0.8241815462
H        1.0572562064   -2.9118345485    0.8351545605
H        2.0154559502   -3.6334067958   -0.5052137752
H        3.3282472901   -0.4247968156    0.9302662203
20   
Generated by ForceBalance from scan.xyz: Frame 11 of 24
C        7.2534764157   -2.3506134470   -0.8590289735
C        6.1536638002   -2.8257446263   -1.5775670786
C        7.0426467743   -1.4391010690    0.1809443386
C        4.8546738938   -2.4103841373   -1.2703057559
C        5.7522731924   -1.0175494208    0.5010352772
C        4.6491054677   -1.5026312497   -0.2206449963
C        1.3862976607   -2.9073409415   -0.1385637327
N        3.3606231804   -1.0773299221    0.1969747662
O        2.1194195823   -1.2805267727   -2.0854518165
O        1.0167798863   -0.2731852555   -0.0121741455
S        1.9023347354   -1.2560629252   -0.6393416076
H        8.2584216976   -2.6782591863   -1.1088351786
H        6.3010147075   -3.5225968780   -2.3984832059
H        7.8844630646   -1.0522395026    0.7491282876
H        4.0254677062   -2.7580064301   -1.8746024051
H        5.5966051626   -0.3151638192    1.3172440945
H        0.4663816345   -3.1288525551   -0.6825839888
H        1.2145937050   -2.8995696386    0.9375502359
H        2.1700175291   -3.6164794343   -0.4084128712
H        3.3212903377   -0.2507011492    0.7869456520
20   
Generated by ForceBalance from scan.xyz: Frame 12 of 24
C        7.2223666449   -2.4025068085   -0.8201075183
C        6.1405577316   -2.7848161826   -1.6169476690
C        7.0045394843   -1.5210236695    0.2443476279
C        4.8521821951   -2.3033237666   -1.3657563801
C        5.7235990382   -1.0406514365    0.5152583960
C        4.6389237477   -1.4287731639   -0.2890745729
C        1.4838594841   -2.8979002862   -0.0617906648
N        3.3588298630   -0.9340068296    0.0620678847
O        2.0286947204   -1.3454638709   -2.1236117119
O        0.9701902013   -0.2816209931   -0.0556071786
S        1.8791013674   -1.2489751338   -0.6720270611
H        8.2199527152   -2.7782543826   -1.0281300292
H        6.2950206826   -3.4560246810   -2.4577512468
H        7.8333577429   -1.2076006733    0.8736423181
H        4.0382325191   -2.5701101874   -2.0292582728
H        5.5601989280   -0.3676273160    1.3543280249
H        0.5547707991   -3.2012594207   -0.5475410347
H        1.3612256037   -2.8422096935    1.0197739433
H        2.2952963262   -3.5743659412   -0.3343926402
H        3.3039327923   -0.1355823760    0.6864886483
20   
Generated by ForceBalance from scan.xyz: Frame 13 of 24
C        7.1496610430   -2.4507927651   -0.7821800269
C        6.0860200303   -2.7624208458   -1.6330689563
C        6.9299329676   -1.5769666638    0.2879283067
C        4.8138113909   -2.2194604518   -1.4309527804
C        5.6637004828   -1.0359324636    0.5108435729
C        4.5983574728   -1.3506745710   -0.3494057727
C        1.5835752961   -2.9017239340    0.0217014429
N        3.3331021028   -0.7837207151   -0.0633198222
O        1.9092731031   -1.3846138195   -2.1112302190
O        0.8958315299   -0.3285699893   -0.0130773607
S        1.8325637322   -1.2480527889   -0.6583962501
H        8.1348307000   -2.8749908645   -0.9529029201
H        6.2434784036   -3.4282256479   -2.4776091800
H        7.7443296818   -1.3181790127    0.9594657997
H        4.0149753434   -2.4310459220   -2.1322787686
H        5.4988560422   -0.3660117492    1.3522664413
H        0.6496268505   -3.2797817414   -0.3977874680
H        1.5181131272   -2.8206621775    1.1070019242
H        2.4203382477   -3.5334897432   -0.2799975151
H        3.2546277361   -0.1619611403    0.7347848974
20   
Generated by ForceBalance from scan.xyz: Frame 14 of 24
C        7.0934441520   -2.4932491067   -0.7462845275
C        6.0741383980   -2.7155267147   -1.6765962570
C        6.8454437846   -1.6612846316    0.3503929842
C        4.8181838323   -2.1202235292   -1.5296029992
C        5.5907882267   -1.0748374032    0.5213127313
C        4.5720229371   -1.2962225911   -0.4198818302
C        1.7037921976   -2.8989297683    0.0944187290
N        3.3165754394   -0.6705591506   -0.2041826068
O        1.8522353368   -1.4972084449   -2.1368423805
O        0.8500877766   -0.3794320801   -0.0654152203
S        1.8199915662   -1.2767403578   -0.6928343748
H        8.0677635955   -2.9554618742   -0.8760129622
H        6.2564729428   -3.3492417737   -2.5405819415
H        7.6257796137   -1.4737307771    1.0832093802
H        4.0512958566   -2.2640559862   -2.2821597029
H        5.4002849301   -0.4402045924    1.3845297968
H        0.7738083832   -3.3515040266   -0.2539503225
H        1.6847297392   -2.7576174003    1.1755491474
H        2.5599163069   -3.5003494462   -0.2143454034
H        3.2255354209   -0.1059525915    0.6352657329
20   
Generated by ForceBalance from scan.xyz: Frame 15 of 24
C        7.0416769040   -2.5240361695   -0.7348150605
C        6.0843105558   -2.6377340549   -1.7481278056
C        6.7445824420   -1.7717721589    0.4059376511
C        4.8430930086   -2.0056777276   -1.6394758345
C        5.4984373203   -1.1561093805    0.5399374809
C        4.5450248557   -1.2657971520   -0.4843510355
C        1.8047322077   -2.8795426175    0.2242571374
N        3.2955733092   -0.6021238431   -0.3305601023
O        1.8139646053   -1.6739182139   -2.1245041213
O        0.8129536379   -0.4293004241   -0.1266091004
S        1.8110925765   -1.3288832368   -0.7048481162
H        8.0079527301   -3.0101772944   -0.8348023244
H        6.3076394267   -3.2104567233   -2.6444162851
H        7.4780338663   -1.6714603032    1.2015583134
H        4.1161693584   -2.0693482302   -2.4412668223
H        5.2656810130   -0.5865690344    1.4376431070
H        0.8840402386   -3.4007395913   -0.0433101370
H        1.8210002728   -2.6464230513    1.2895577444
H        2.6754657879   -3.4669958961   -0.0696566427
H        3.2019872878   -0.0322122846    0.5063257507
20   
Generated by ForceBalance from scan.xyz: Frame 16 of 24
C        7.0022449517   -2.5547029239   -0.7355791074
C        6.1287868137   -2.5398372360   -1.8289864322
C        6.6356076677   -1.9060181037    0.4476240932
C        4.9021228088   -1.8762571786   -1.7547324161
C        5.3981726883   -1.2642576386    0.5437715323
C        4.5307219634   -1.2447519997   -0.5582745858
C        1.8939944402   -2.8165897213    0.3730029552
N        3.2860841284   -0.5527537563   -0.4676205437
O        1.8201522773   -1.8795106487   -2.0937511481
O        0.7921103243   -0.4633649393   -0.2253676788
S        1.8204539346   -1.3787179516   -0.7211616430
H        7.9605997549   -3.0614292880   -0.8068465755
H        6.4100634449   -3.0329508499   -2.7556677270
H        7.3065397346   -1.9073449674    1.3024956881
H        4.2297101047   -1.8446439012   -2.6048826885
H        5.1066358761   -0.7754887107    1.4714665874
H        0.9930520183   -3.4013495101    0.1799245986
H        1.9132412268   -2.4688188356    1.4065856507
H        2.7850602814   -3.3962598540    0.1295139752
H        3.1922116846    0.0520427164    0.3456598611
20   
Generated by ForceBalance from scan.xyz: Frame 17 of 24
C        6.9906010257   -2.5633613180   -0.7576871752
C        6.2170115259   -2.4076045875   -1.9139423652
C        6.5298971323   -2.0566388856    0.4616898560
C        4.9914294764   -1.7402949647   -1.8615579539
C        5.2912927829   -1.4122475800    0.5264819227
C        4.5210524867   -1.2542674488   -0.6344887529
C        1.9313360216   -2.7214961805    0.5561525331
N        3.2735186353   -0.5537336915   -0.5946837309
O        1.8594660114   -2.1356092870   -2.0153904063
O        0.7699482063   -0.5091946521   -0.3617176313
S        1.8304179512   -1.4495003919   -0.7257957889
H        7.9498449150   -3.0711456551   -0.8079101684
H        6.5763323770   -2.7917368335   -2.8648107267
H        7.1275126942   -2.1685311768    1.3624244542
H        4.3864086538   -1.6001653390   -2.7508759870
H        4.9245039055   -1.0275130829    1.4761709604
H        1.0407087887   -3.3428792511    0.4472040589
H        1.9420222431   -2.2366065434    1.5331669375
H        2.8319793950   -3.3138240365    0.3924290217
H        3.1834158157    0.1035217641    0.1783300349
20   
Generated by ForceBalance from scan.xyz: Frame 18 of 24
C        7.1085575159   -2.4411553195   -0.9216874991
C        6.4721077865   -1.8583400656   -2.0231192322
C        6.4827480649   -2.4320001234    0.3291844908
C        5.2076304866   -1.2827393358   -1.8799664554
C        5.2278792804   -1.8364714927    0.4811193251
C        4.5849298340   -1.2702095780   -0.6256184552
C        1.6951678931   -2.3467123330    0.9926244697
N        3.2969219802   -0.6617253502   -0.4364937440
O        2.1906397949   -2.7608530531   -1.5700588084
O        0.8240734618   -0.7041081310   -0.9216023810
S        1.9097322436   -1.6530098591   -0.6534730783
H        8.0885199336   -2.8961810748   -1.0372871091
H        6.9535396594   -1.8651303061   -2.9972414885
H        6.9786148491   -2.8716962244    1.1904166874
H        4.6936252346   -0.8613206062   -2.7399247536
H        4.7525533534   -1.7836612580    1.4565388059
H        0.7971717224   -2.9656762657    0.9485814014
H        1.5739018082   -1.5264303556    1.6993417873
H        2.5651333412   -2.9600457695    1.2277412346
H        3.1412680318    0.1659567495   -1.0125630706
20   
Generated by ForceBalance from scan.xyz: Frame 19 of 24
C        7.1834116028   -2.3665851360   -0.9969507881
C        6.5883388845   -1.6251536432   -2.0225382699
C        6.4786516528   -2.5969455733    0.1894571984
C        5.2899961987   -1.1320208995   -1.8717178401
C        5.1918661556   -2.0815442571    0.3558534664
C        4.5908999666   -1.3545800508   -0.6786489546
C        1.5193599846   -2.1398582978    1.1405362359
N        3.2760341999   -0.8176524704   -0.4947384148
O        2.3151979534   -3.1614838262   -1.1655600848
O        0.8619559467   -1.0529093508   -1.1897511362
S        1.9221378776   -1.8735930370   -0.5937840982
H        8.1887673833   -2.7596978332   -1.1200476137
H        7.1275637863   -1.4439399535   -2.9483974830
H        6.9373928710   -3.1655027615    0.9939386014
H        4.8143594807   -0.5833555436   -2.6813540039
H        4.6599595230   -2.2274142732    1.2913964704
H        0.6185542227   -2.7562037992    1.1569528569
H        1.3402448734   -1.1705991252    1.6049090139
H        2.3470851752   -2.6657265710    1.6159448468
H        3.0658190018   -0.0340970914   -1.1120976659
20   
Generated by ForceBalance from scan.xyz: Frame 20 of 24
C        7.2370499731   -2.3076981818   -1.0169554514
C        6.6803828683   -1.4452746173   -1.9656982994
C        6.4628050877   -2.7270047172    0.0706193215
C        5.3572054878   -1.0156743985   -1.8367887925
C        5.1494360135   -2.2803692326    0.2204887939
C        4.5907150774   -1.4244110732   -0.7374661579
C        1.4318555987   -1.9275621270    1.1890337786
N        3.2607115200   -0.9287695225   -0.5800216015
O        2.3608543078   -3.3681200098   -0.8270050971
O        0.8838514389   -1.3351822846   -1.3343042054
S        1.9217394972   -2.0032476886   -0.5420985287
H        8.2621466327   -2.6511162163   -1.1238187407
H        7.2691525487   -1.1166864296   -2.8179092294
H        6.8861449573   -3.3979005514    0.8132818335
H        4.9179890646   -0.3658930071   -2.5907032797
H        4.5620676572   -2.5991258990    1.0758052732
H        0.5490042303   -2.5612798796    1.2916278954
H        1.2003636010   -0.8916497616    1.4357450020
H        2.2491482288   -2.3072658813    1.8021871468
H        3.0229963849   -0.1908336354   -1.2409096508
20   
Generated by ForceBalance from scan.xyz: Frame 21 of 24
C        7.2320743229   -2.2853230860   -0.9958021935
C        6.6964096658   -1.3603412854   -1.8965177202
C        6.4118573443   -2.8203039512    0.0029256238
C        5.3555457770   -0.9809514337   -1.8053495455
C        5.0759567919   -2.4316969791    0.1158758721
C        4.5410230129   -1.5082578247   -0.7930042577
C        1.4983404022   -1.8270032144    1.2985951350
N        3.2003330276   -1.0397646470   -0.6802716970
O        2.2647950666   -3.4765274322   -0.6210227117
O        0.7855067404   -1.4751730913   -1.2305275209
S        1.8649811787   -2.0814811951   -0.4458480005
H        8.2724801578   -2.5879993281   -1.0726534315
H        7.3175281850   -0.9393961428   -2.6826327601
H        6.8139074442   -3.5446102126    0.7062705863
H        4.9403307323   -0.2733447654   -2.5199885317
H        4.4558542502   -2.8622489174    0.8944727251
H        0.6459764765   -2.4661582818    1.5361884430
H        1.2529763681   -0.7757238452    1.4475545605
H        2.3696918759   -2.1153578684    1.8869971645
H        2.9353940007   -0.3625652617   -1.3927662515
20   
Generated by ForceBalance from scan.xyz: Frame 22 of 24
C        7.2387024447   -2.2372065242   -0.9295751257
C        6.7189674706   -1.2728609294   -1.7984197505
C        6.3797041317   -2.8756592256   -0.0304411080
C        5.3608707476   -0.9527347900   -1.7698111930
C        5.0207600376   -2.5558855763    0.0154945566
C        4.5037322060   -1.5883063237   -0.8581526670
C        1.6059992667   -1.7735942741    1.3386433403
N        3.1452829030   -1.1687797141   -0.8192092774
O        2.1764926606   -3.5737330296   -0.5119975280
O        0.7016069071   -1.5822494802   -1.1506199153
S        1.8245786894   -2.1585113108   -0.4069393620
H        8.2944499887   -2.4910073966   -0.9568551791
H        7.3690803755   -0.7694949609   -2.5090660432
H        6.7655844294   -3.6350348830    0.6444986068
H        4.9643695713   -0.2048537725   -2.4534728772
H        4.3725666323   -3.0850215280    0.7040791321
H        0.7891167383   -2.4013594310    1.6992382962
H        1.3563859149   -0.7164288003    1.4261556851
H        2.5301399405   -2.0051878526    1.8691878819
H        2.8611169919   -0.5560226731   -1.5800064735
20   
Generated by ForceBalance from scan.xyz: Frame 23 of 24
C        7.2523205873   -2.1940982577   -0.8572459222
C        6.7392498777   -1.1924311108   -1.6879354723
C        6.3734982349   -2.9258155636   -0.0546774252
C        5.3707672042   -0.9235838155   -1.7089628972
C        4.9996501828   -2.6681164931   -0.0657039287
C        4.4918940773   -1.6572345807   -0.8952610136
C        1.7552242226   -1.6878265148    1.3907531458
N        3.1204665867   -1.2895105630   -0.9199025957
O        2.1010795722   -3.6256412451   -0.3704037384
O        0.6571958015   -1.6238543708   -1.0333016072
S        1.8132036223   -2.1921715560   -0.3371611832
H        8.3177270826   -2.4046964000   -0.8420230927
H        7.4042890613   -0.6151866832   -2.3248480728
H        6.7536316227   -3.7176156209    0.5854420673
H        4.9811568384   -0.1378735377   -2.3529122659
H        4.3368118252   -3.2813806603    0.5327518711
H        0.9606563209   -2.2690027434    1.8621186487
H        1.5368244026   -0.6208305993    1.4276629770
H        2.7175624427   -1.9100761557    1.8537060996
H        2.8185064692   -0.7204223880   -1.7061939627
20   
Generated by ForceBalance from scan.xyz: Frame 24 of 24
C        7.2413920080   -2.1501486896   -0.7957683979
C        6.7319781920   -1.1207022956   -1.5946234059
C        6.3516638045   -2.9676181547   -0.0946619864
C        5.3567215977   -0.9050039030   -1.6790656667
C        4.9697625358   -2.7713894434   -0.1769017385
C        4.4665137694   -1.7280058713   -0.9689574676
C        1.8479864371   -1.6023952274    1.3418863434
N        3.0845768923   -1.4321751475   -1.0714829025
O        2.0253689329   -3.6672823631   -0.2905094469
O        0.6163075594   -1.6652637304   -1.0215634453
S        1.7889121649   -2.2251609529   -0.3479755449
H        8.3126493382   -2.3160480975   -0.7283812313
H        7.4060812198   -0.4765710964   -2.1530743029
H        6.7296905598   -3.7827579605    0.5168442760
H        4.9695131188   -0.0933345671   -2.2913825860
H        4.2978796701   -3.4525132053    0.3315836841
H        1.0638491698   -2.1199121350    1.8973335894
H        1.6673508998   -0.5278812572    1.3167002487
H        2.8279988356   -1.8297278938    1.7639903148
H        2.7758529932   -0.8392798815   -1.8355965356
