30   

C        7.4088334641   -5.7624291309    4.4739046734
C        8.5463280925   -9.0768788496    2.0728256716
C        8.9055943069   -8.8681497697    0.7438557502
C        7.5880265360   -8.2565264479    2.6721411092
C        5.8674911903   -6.0692268927    7.1904895178
C        8.3059586409   -7.8359467187    0.0215533929
C        6.7016483251   -6.2892339174    8.2906223431
C        7.2580195101   -3.9501663435    8.3286593386
C        6.9673930724   -7.2087361464    1.9595007312
C        5.7282986317   -4.7840189084    6.6407243219
C        7.4066580842   -5.2309872095    8.8679059351
C        7.3428931795   -7.0017615254    0.6060964483
C        6.4245818259   -3.7101115373    7.2292096652
C        6.1084805353   -5.8316144251    3.8837436596
C        5.9329487567   -6.3757122745    2.6157510687
N        8.4760200516   -5.7347804731    4.9420737353
N        4.8867108552   -4.5577007645    5.5587937654
N        4.9859542299   -5.1566374404    4.4170158058
O        4.7966623889   -6.1701124576    1.9578735073
Cl       8.4517076887   -5.5007368384   10.2400783491
Cl       6.6893601565   -5.6929249930   -0.3627944054
Cl       6.2833109258   -2.0819028687    6.5956099685
H        9.0080405822   -9.8762541752    2.6418425249
H        9.6501210068   -9.5011382871    0.2734141336
H        7.3142618450   -8.4490882481    3.7034996355
H        5.3225042398   -6.8979638721    6.7536339974
H        8.5928720397   -7.6655484400   -1.0096952899
H        6.8069710899   -7.2864277738    8.7016265866
H        7.8023015208   -3.1232312319    8.7680952602
H        4.2291416422   -5.5737084477    2.4801112835
30   

C        7.4340434616   -5.6053752183    4.3806631357
C        8.5202864187   -9.0843933013    2.1411749213
C        8.8646617191   -8.9512775549    0.7992770780
C        7.5762143804   -8.2245790797    2.7062579026
C        6.0074266317   -6.1714130260    7.1478856501
C        8.2653392162   -7.9540668204    0.0300698848
C        6.8706130225   -6.3746101611    8.2282938529
C        7.2419010330   -4.0030728099    8.3698261953
C        6.9519620571   -7.2116236171    1.9467951941
C        5.7574062891   -4.8775089798    6.6620413255
C        7.4971717628   -5.2913372883    8.8479292652
C        7.3162402108   -7.0797990985    0.5781186255
C        6.3765909248   -3.7798152602    7.2916586053
C        6.1170346657   -5.8311998838    3.8741944966
C        5.9375271114   -6.3380708243    2.5859440417
N        8.5160515286   -5.4478705877    4.7842822848
N        4.8776155271   -4.6685114998    5.6072645371
N        4.9676761616   -5.2526301038    4.4581083768
O        4.8528744645   -6.0141993870    1.8923555684
Cl       8.5753635507   -5.5399372420   10.1981659387
Cl       6.6780495656   -5.8180917583   -0.4621323657
Cl       6.0991363206   -2.1404936915    6.7362852778
H        8.9832776680   -9.8553757548    2.7471189976
H        9.5985830563   -9.6147434817    0.3548733258
H        7.3168687641   -8.3593289083    3.7503820475
H        5.5212431117   -7.0196028686    6.6801112838
H        8.5432013407   -7.8413137440   -1.0115541037
H        7.0576671249   -7.3779893008    8.5923581911
H        7.7254640705   -3.1565345635    8.8418386933
H        4.3013860293   -5.4110426254    2.4238057759
30   

C        7.4455351276   -5.4645795599    4.3275162015
C        8.5121937355   -9.1012844203    2.2212453881
C        8.8442286583   -9.0372329591    0.8718994641
C        7.5811959539   -8.2066165843    2.7523521176
C        6.1418208746   -6.2573874210    7.1387193490
C        8.2457768222   -8.0737657120    0.0611283896
C        7.0324346750   -6.4224900258    8.2028823083
C        7.2264862841   -4.0340921508    8.4031460648
C        6.9548172647   -7.2261472724    1.9518138616
C        5.7855692329   -4.9743846909    6.6930259630
C        7.5836226781   -5.3113253051    8.8442800785
C        7.3090783551   -7.1644561855    0.5727129539
C        6.3309462865   -3.8492774114    7.3424630001
C        6.1432556347   -5.8478668214    3.8836756551
C        5.9606342602   -6.3144753670    2.5735965907
N        8.5175231767   -5.1756716321    4.6817965861
N        4.8697263095   -4.8071619531    5.6619193957
N        4.9669804431   -5.3791759150    4.5079554673
O        4.9437916399   -5.8721950354    1.8471299589
Cl       8.6932127630   -5.5127920262   10.1767220298
Cl       6.6820605126   -5.9537658453   -0.5338976785
Cl       5.9234430333   -2.2218789348    6.8341377032
H        8.9753283406   -9.8454654425    2.8597103192
H        9.5685307837   -9.7275895237    0.4534100776
H        7.3350220056   -8.2894061079    3.8049736987
H        5.7124749703   -7.1273508017    6.6556208491
H        8.5155919845   -8.0145098116   -0.9870448286
H        7.2978396898   -7.4180036842    8.5386136281
H        7.6519469125   -3.1658818983    8.8915340984
H        4.4064110356   -5.2616349566    2.3842840760
30   

C        7.4350055742   -5.3207886432    4.2675276226
C        8.4948067016   -9.1141248054    2.2655352871
C        8.8136221878   -9.1146976981    0.9122654388
C        7.5809324818   -8.1847327150    2.7652461265
C        6.2569006351   -6.3253381442    7.1109480049
C        8.2179029714   -8.1817363581    0.0656227884
C        7.1679246299   -6.4446206347    8.1635803224
C        7.1874285594   -4.0526559807    8.4098002278
C        6.9566616053   -7.2308827380    1.9299087667
C        5.7997939427   -5.0644630797    6.6965888762
C        7.6415983834   -5.3083853021    8.8226898793
C        7.2975086594   -7.2376965282    0.5432655005
C        6.2688474610   -3.9143499912    7.3617632239
C        6.1716082716   -5.8533577842    3.8700775049
C        5.9902594090   -6.2756751409    2.5350625248
N        8.4764539749   -4.9055867146    4.5851444969
N        4.8558430774   -4.9485549003    5.6843514018
N        4.9727182739   -5.5038440752    4.5247384783
O        5.0591349430   -5.7133615482    1.7798840878
Cl       8.7741864777   -5.4534365526   10.1429678562
Cl       6.6774108396   -6.0805435041   -0.6237746349
Cl       5.7368958146   -2.3121905011    6.8895623454
H        8.9558488882   -9.8346993810    2.9319830744
H        9.5254731558   -9.8316903173    0.5178674427
H        7.3496499422   -8.2201587365    3.8237760207
H        5.8861891325   -7.2150638043    6.6154900701
H        8.4774414641   -8.1739967469   -0.9868181613
H        7.5080988746   -7.4242788752    8.4777010525
H        7.5530118785   -3.1649211530    8.9114511152
H        4.5384386265   -5.0901928008    2.3186144394
30   

C        7.4209746260   -5.1898542775    4.2369442718
C        8.4363785584   -9.1426713736    2.2860864065
C        8.7333431814   -9.1966200749    0.9296825080
C        7.5567282577   -8.1723492059    2.7684975360
C        6.3809147852   -6.3901170677    7.1085554239
C        8.1472640595   -8.2780023914    0.0618086870
C        7.3131595255   -6.4633334921    8.1463834250
C        7.1788904597   -4.0787426751    8.4270169996
C        6.9448790689   -7.2262232283    1.9134421623
C        5.8334986245   -5.1574898567    6.7213168793
C        7.7202550322   -5.3074394029    8.8156871930
C        7.2600059198   -7.2931812402    0.5199228426
C        6.2367637740   -3.9874258681    7.3947924776
C        6.2083674831   -5.8515453847    3.8791496148
C        6.0295282900   -6.2153145929    2.5129355336
N        8.4203526320   -4.6633537441    4.5228290025
N        4.8625542127   -5.0949037475    5.7308380032
N        4.9984297710   -5.6255752927    4.5625673564
O        5.2064935763   -5.5226940108    1.7432073273
Cl       8.8774725920   -5.3959759735   10.1194008552
Cl       6.6462223505   -6.1754072906   -0.6887826256
Cl       5.5930786511   -2.4179265861    6.9531084081
H        8.8892048026   -9.8528498748    2.9691319750
H        9.4200418056   -9.9447226612    0.5486882197
H        7.3477328299   -8.1698993579    3.8320848409
H        6.0605960776   -7.2953979339    6.6061938368
H        8.3881879179   -8.3145213902   -0.9944694383
H        7.7205211481   -7.4228785080    8.4419858243
H        7.4930127292   -3.1756826918    8.9361476687
H        4.7164416160   -4.8789738824    2.2860706342
30   

C        7.4067228046   -5.0467413213    4.2213712224
C        8.3626517470   -9.1913623540    2.2948055566
C        8.6265548161   -9.3013743227    0.9355689120
C        7.5338201519   -8.1710569431    2.7634499251
C        6.5163291858   -6.4355030125    7.1110060715
C        8.0543864626   -8.3913225021    0.0503124963
C        7.4609139827   -6.4401098199    8.1398950201
C        7.1450510323   -4.0739486597    8.4319401013
C        6.9415268546   -7.2257708341    1.8920585414
C        5.8697234054   -5.2486020651    6.7362564642
C        7.7831201562   -5.2586378183    8.8107793583
C        7.2165571802   -7.3571484922    0.4928245381
C        6.1881320153   -4.0525242617    7.4094656877
C        6.2692662889   -5.8362606944    3.8795692098
C        6.0992000884   -6.1464907901    2.4838271896
N        8.3429412579   -4.4084991223    4.4928233406
N        4.8826963882   -5.2636283387    5.7608528607
N        5.0547271082   -5.7629426436    4.5841746259
O        5.4018599143   -5.3397827690    1.7026473708
Cl       8.9543983447   -5.2626358876   10.1048121185
Cl       6.6053614723   -6.2750008999   -0.7497045285
Cl       5.4203117917   -2.5364761016    6.9798567147
H        8.8034348369   -9.8959204810    2.9914241523
H        9.2755904092  -10.0875294220    0.5653204121
H        7.3558270110   -8.1287873370    3.8316389984
H        6.2609208565   -7.3608330953    6.6079925436
H        8.2666441204   -8.4748648497   -1.0094543513
H        7.9431263548   -7.3666339125    8.4280257534
H        7.3935040704   -3.1510579922    8.9417935531
H        4.9558046526   -4.6629318775    2.2426830751
30   

C        5.9372704288   -7.1171198855    5.0130479338
C        9.3862088465   -7.1008393685    1.5413329551
C        9.2327424647   -7.7578764816    0.3277976786
C        8.2620864124   -6.6917587063    2.2591564576
C        5.6960516651   -4.9870211951    7.6604192100
C        7.9523669693   -7.9941668250   -0.1658160344
C        6.2817882896   -5.4566880757    8.8385151589
C        8.4544002056   -5.2382592294    7.8324877670
C        6.9459108664   -6.9248286700    1.7932699260
C        6.4827421949   -4.6495651978    6.5501825089
C        7.6682055204   -5.5843625978    8.9352655511
C        6.8044824235   -7.5911472312    0.5327185460
C        7.8857667520   -4.7703065383    6.6414240842
C        6.0752307887   -6.0981059409    4.0302329080
C        5.8021410072   -6.4972657289    2.6513144460
N        5.8085895143   -7.9589631879    5.8082479506
N        5.8638003441   -4.1357344069    5.4206411426
N        5.8430760055   -4.7351762224    4.2780828191
O        4.5589541808   -6.6823349599    2.2491925103
Cl       8.4088237208   -6.1511690292   10.4106040448
Cl       5.2674555367   -7.9784728456   -0.2266716693
Cl       8.9390737038   -4.3024093163    5.3204423322
H       10.3786505784   -6.9090112835    1.9342022786
H       10.1024588951   -8.0855297110   -0.2312029520
H        8.4392702402   -6.1858295882    3.1998798829
H        4.6179767096   -4.8868998713    7.5993727582
H        7.8345691538   -8.5087443697   -1.1125588379
H        5.6591540113   -5.7214475066    9.6855341151
H        9.5314281888   -5.3223396448    7.9044132952
H        3.9386728444   -6.3901857341    2.9399841368
30   

C        6.0588896918   -7.0799740361    4.8954892470
C        9.4116451022   -7.2066783843    1.6166959136
C        9.2440651702   -7.9568398518    0.4598179178
C        8.2982351051   -6.6830112934    2.2745633850
C        5.6756991802   -5.1208763519    7.6991059045
C        7.9608251212   -8.1757126396   -0.0353236722
C        6.3655147269   -5.5761815909    8.8250877237
C        8.4501332518   -5.1053338461    7.7242985527
C        6.9808251964   -6.8892180355    1.8010822931
C        6.3649325220   -4.6642396306    6.5670091143
C        7.7607233394   -5.5705239760    8.8479055623
C        6.8241526419   -7.6597766652    0.6046387798
C        7.7769196335   -4.6492054855    6.5838192674
C        6.0720869798   -5.9986020590    3.9689482899
C        5.8487993106   -6.3170070767    2.5849664348
N        6.0434941387   -7.9709561637    5.6462990529
N        5.6328303835   -4.1779981842    5.4931078994
N        5.6525559244   -4.7018247996    4.3135717019
O        4.6222717858   -6.3242527587    2.0889644088
Cl       8.6295120711   -6.1206286584   10.2582975524
Cl       5.2773244397   -8.0594079921   -0.1273392037
Cl       8.7112751372   -4.0302344030    5.2351254921
H       10.4064336950   -7.0294803001    2.0104239416
H       10.1048871604   -8.3720127174   -0.0529028093
H        8.4805122748   -6.1015146886    3.1702662484
H        4.5912462291   -5.1270253531    7.6952613704
H        7.8314992852   -8.7675460395   -0.9342120285
H        5.8168526884   -5.9346065808    9.6886685438
H        9.5325465554   -5.0863782206    7.7400724282
H        4.0040894816   -5.9405454193    2.7358270748
30   

C        6.2060101107   -7.0313569893    4.8434914631
C        9.3979767769   -7.2798256886    1.6340475093
C        9.2001555890   -8.0760957214    0.5125793300
C        8.3049943365   -6.6921119523    2.2721025676
C        5.6390337483   -5.1696327073    7.7254758332
C        7.9072761615   -8.2799579222    0.0350016392
C        6.3886665733   -5.5937192808    8.8249403447
C        8.4062695211   -4.9796088272    7.6715395851
C        6.9808163127   -6.8785054628    1.8115593226
C        6.2636940964   -4.6575038090    6.5798068123
C        7.7807130741   -5.5012651082    8.8076942590
C        6.7915642385   -7.7007791729    0.6572774749
C        7.6727792025   -4.5525177295    6.5568422498
C        6.0559800861   -5.9385720667    3.9407602165
C        5.8717650633   -6.2238300139    2.5594249026
N        6.3323877898   -7.9311018300    5.5731719357
N        5.4655235140   -4.2167423693    5.5325217015
N        5.5050270785   -4.7056688794    4.3378549518
O        4.6772973089   -6.0935130708    2.0034830718
Cl       8.7231262348   -6.0154875109   10.1840481695
Cl       5.2231370636   -8.0946683148   -0.0293506444
Cl       8.5289737454   -3.8638253329    5.1897107995
H       10.4001704070   -7.1153476222    2.0142576947
H       10.0449013772   -8.5395543522    0.0147030132
H        8.5049792886   -6.0723405681    3.1385292544
H        4.5575426290   -5.2454997127    7.7523202396
H        7.7537100986   -8.9098882942   -0.8336493884
H        5.8890607123   -5.9967665438    9.6985707725
H        9.4855357905   -4.8946778790    7.6566064214
H        4.0732778228   -5.6559085612    2.6296342739
30   

C        6.3706007104   -6.9658032570    4.8205047074
C        9.3959141423   -7.3193863914    1.6209665092
C        9.1623710463   -8.1679113314    0.5445859664
C        8.3246700416   -6.6875701873    2.2543365249
C        5.5716046516   -5.2015089769    7.7504779648
C        7.8557360484   -8.3821231603    0.1091357834
C        6.3507292964   -5.5898400083    8.8425166202
C        8.3235351754   -4.8584705394    7.6803059581
C        6.9901539383   -6.8818108050    1.8316982897
C        6.1585485020   -4.6495102783    6.6034841390
C        7.7354069410   -5.4216781021    8.8166746993
C        6.7627617991   -7.7595073035    0.7293281105
C        7.5600944321   -4.4645223303    6.5731149769
C        6.0492721750   -5.8971223467    3.9316857094
C        5.9034578389   -6.1698924152    2.5549107317
N        6.6424074012   -7.8449734729    5.5355692845
N        5.3264153567   -4.2570851852    5.5625504480
N        5.3915006974   -4.7266786727    4.3604653096
O        4.7534202035   -5.9223863732    1.9451245803
Cl       8.7139693221   -5.8953096649   10.1824467951
Cl       5.1677881883   -8.1711064720    0.1198457022
Cl       8.3694714760   -3.7247596923    5.2038241219
H       10.4087228225   -7.1476793690    1.9683838689
H        9.9900824383   -8.6644171369    0.0499734141
H        8.5454733904   -6.0243699554    3.0832984348
H        4.4962544378   -5.3378524976    7.7836329302
H        7.6736706837   -9.0538826500   -0.7218291697
H        5.8799532966   -6.0252533184    9.7166201565
H        9.3966836325   -4.7164280260    7.6586663077
H        4.1602305442   -5.4485197491    2.5554902819
30   

C        6.5039044237   -6.9209392499    4.8000522386
C        9.3992859896   -7.3775710201    1.6018479057
C        9.1307589526   -8.2511502451    0.5530349422
C        8.3509669664   -6.7090278594    2.2364633149
C        5.5168709814   -5.2770089638    7.7675735032
C        7.8122857071   -8.4548383021    0.1474175569
C        6.3258358815   -5.6229027982    8.8520507379
C        8.2401572055   -4.7550254244    7.6860960251
C        7.0075716980   -6.8924594605    1.8410438705
C        6.0594851050   -4.6791327437    6.6219234655
C        7.6966131571   -5.3659695687    8.8200630193
C        6.7434562272   -7.7951517868    0.7709078327
C        7.4460234063   -4.4008216377    6.5867455763
C        6.0368460989   -5.8959649625    3.9230356869
C        5.9411662511   -6.1374189606    2.5459636769
N        6.8981603530   -7.7636581180    5.5020242973
N        5.1955045774   -4.3406833204    5.5874139436
N        5.2853047150   -4.7919264245    4.3792187816
O        4.8602673212   -5.7600487129    1.8765186714
Cl       8.7120864239   -5.7903118213   10.1751418517
Cl       5.1246391297   -8.1889324683    0.2165259278
Cl       8.1984838778   -3.6001667769    5.2190580180
H       10.4212189305   -7.2142075589    1.9257477115
H        9.9405945839   -8.7750291419    0.0570760145
H        8.5935287774   -6.0242899693    3.0418150179
H        4.4529404330   -5.4836256112    7.8049509176
H        7.6023111943   -9.1458913047   -0.6607989679
H        5.8893175047   -6.0954516784    9.7246236474
H        9.3020781532   -4.5453238736    7.6596568320
H        4.2705915059   -5.2645050533    2.4733557094
30   

C        6.6417824224   -6.8402206224    4.8031461460
C        9.4073683856   -7.4060813495    1.5893054599
C        9.0983931979   -8.2998201482    0.5680869655
C        8.3862868151   -6.7024170145    2.2308156248
C        5.4642814305   -5.3517714608    7.8070990410
C        7.7670302134   -8.4881269109    0.1967079909
C        6.2974067688   -5.6516514922    8.8868460082
C        8.1417337915   -4.6298968663    7.7328777306
C        7.0323116636   -6.8729905753    1.8696939605
C        5.9600026606   -4.7010723700    6.6692908985
C        7.6458386321   -5.2955163398    8.8579517205
C        6.7266919780   -7.7925793040    0.8290131825
C        7.3220639063   -4.3185470962    6.6389714451
C        6.0321899392   -5.8753067708    3.9442173457
C        5.9876343418   -6.0835288238    2.5655867613
N        7.1540020580   -7.6324379695    5.4877507034
N        5.0711970682   -4.4187599519    5.6386581059
N        5.1889796694   -4.8487908166    4.4247093255
O        4.9867036294   -5.5830024667    1.8513186224
Cl       8.6915213425   -5.6659749229   10.2059108236
Cl       5.0836513824   -8.1555626166    0.3296004747
Cl       8.0121830352   -3.4463994009    5.2821019585
H       10.4393040961   -7.2539918688    1.8858349374
H        9.8870562507   -8.8503451704    0.0669035301
H        8.6562188191   -6.0008147522    3.0127268187
H        4.4183742436   -5.6361686047    7.8415105557
H        7.5251263457   -9.1931883279   -0.5901578031
H        5.8973502556   -6.1663750200    9.7529785433
H        9.1858878653   -4.3442482028    7.7088226643
H        4.3975129140   -5.0763318275    2.4396101058
30   

C        6.7487598552   -6.7880782302    4.8092849220
C        9.3904255350   -7.4733994773    1.5572325745
C        9.0389170613   -8.3825146594    0.5628647625
C        8.3988212980   -6.7388383578    2.2107521006
C        5.4142115598   -5.4585958431    7.8337313327
C        7.6948362762   -8.5544110543    0.2295175628
C        6.2775449598   -5.6928092755    8.9058714035
C        8.0181461477   -4.5057535376    7.7490637091
C        7.0340336113   -6.8963744557    1.8887625452
C        5.8434679275   -4.7596961672    6.6977770906
C        7.5900900129   -5.2217968397    8.8710990873
C        6.6852809528   -7.8270321941    0.8753988230
C        7.1662421170   -4.2571120601    6.6634099980
C        6.0056774042   -5.9100666458    3.9611116813
C        6.0118548789   -6.0782403188    2.5810984261
N        7.3704172880   -7.5084171012    5.4827990739
N        4.9267127683   -4.5551178981    5.6728497966
N        5.0705901925   -4.9730819124    4.4569093644
O        5.1015829660   -5.4622295959    1.8342575484
Cl       8.6741962963   -5.5141434591   10.2079439493
Cl       5.0198113073   -8.1533380014    0.4301660277
Cl       7.7679967864   -3.3177882838    5.3093412556
H       10.4323429450   -7.3328540059    1.8229820204
H        9.8047267730   -8.9562965164    0.0524181835
H        8.6990497697   -6.0242006003    2.9694563775
H        4.3972773568   -5.8331507749    7.8719278467
H        7.4195123429   -9.2689070407   -0.5375674981
H        5.9294782747   -6.2467994967    9.7701884218
H        9.0339959701   -4.1319085311    7.7204387598
H        4.5075182324   -4.9515058151    2.4143465282
30   

C        6.8955024577   -6.6818074657    4.7914499320
C        9.3838113136   -7.5375700073    1.4746254187
C        8.9755173602   -8.4707291243    0.5244152411
C        8.4330528282   -6.7628544700    2.1428328623
C        5.3680022304   -5.5932126517    7.8164508058
C        7.6159299872   -8.6251752505    0.2485834844
C        6.2388369074   -5.7795488942    8.8919119591
C        7.8719057595   -4.3983940562    7.7949573991
C        7.0546710644   -6.9064757438    1.8800844926
C        5.7413180721   -4.8219409220    6.7082424562
C        7.5021302247   -5.1877983856    8.8882668695
C        6.6484589790   -7.8565794312    0.9106145312
C        7.0103006257   -4.1952075489    6.7072413549
C        6.0229157525   -5.9186130978    3.9547775861
C        6.0666587510   -6.0516126296    2.5735291312
N        7.6230167624   -7.3090062024    5.4522420840
N        4.8228140098   -4.6752245936    5.6752187654
N        5.0061744059   -5.0743412037    4.4575981146
O        5.2483088676   -5.3344237512    1.8103714617
Cl       8.5967806195   -5.4235947244   10.2277581241
Cl       4.9580511243   -8.1427348226    0.5408628997
Cl       7.5334808855   -3.1647005507    5.3875350088
H       10.4379920907   -7.4090900360    1.6941463953
H        9.7096139856   -9.0750774671    0.0027707508
H        8.7750056861   -6.0293218016    2.8649153311
H        4.3903837381   -6.0621207493    7.8293455478
H        7.2962489272   -9.3553740421   -0.4857818154
H        5.9357390639   -6.3910483491    9.7340529440
H        8.8493825881   -3.9324153346    7.7899863983
H        4.6530144397   -4.8165263006    2.3829084299
