14   
Generated by ForceBalance from scan.xyz: Frame 1 of 24
C        0.0958698329   -1.2260071692   -1.7788123774
C       -0.4364336401   -0.5089114524   -0.5357809649
C        0.0776320228    1.0943360675    1.3952488854
C        0.5498929831    0.4750950471    0.0838052746
Cl       0.1542860841   -0.1334236143    2.7347786661
Cl       0.8639629352    1.8789290673   -1.0567162501
H        1.0181898573   -1.7725595161   -1.5522867376
H       -0.6387482732   -1.9491698527   -2.1459632859
H        0.3101323355   -0.5202366181   -2.5859162546
H       -1.3654126532    0.0245351276   -0.7681140101
H       -0.6765066979   -1.2455221904    0.2398742831
H       -0.9543414878    1.4405484369    1.3271972365
H        0.7248716818    1.9151668543    1.6992916795
H        1.5274507570    0.0107361970    0.2278563506
14   
Generated by ForceBalance from scan.xyz: Frame 2 of 24
C        0.0852410694   -1.2192915374   -1.7815873127
C       -0.4595858588   -0.4721134734   -0.5625103355
C        0.0439855574    1.0770851354    1.4053254421
C        0.5411238322    0.4726133498    0.0914823894
Cl       0.4248935650   -0.0416380171    2.7868441318
Cl       0.9768913602    1.8609793094   -1.0295055084
H        0.9729919342   -1.8052300521   -1.5187556433
H       -0.6669119939   -1.9098281728   -2.1750771597
H        0.3614896618   -0.5263445907   -2.5809601945
H       -1.3586658687    0.0952467217   -0.8295822632
H       -0.7555902161   -1.1924466686    0.2112013195
H       -1.0347250881    1.2380258849    1.3984249635
H        0.5550419864    2.0106445459    1.6315046456
H        1.4934571938   -0.0309196216    0.2642749997
14   
Generated by ForceBalance from scan.xyz: Frame 3 of 24
C        0.0815670306   -1.1978802369   -1.7978700520
C       -0.4712049876   -0.4470485920   -0.5848964541
C        0.0150573135    1.0461877181    1.4285842053
C        0.5453459979    0.4454682314    0.1184526942
Cl       0.6521640743    0.1269091226    2.8602085961
Cl       1.1006281143    1.8116260769   -0.9759498696
H        0.9366990864   -1.8226115427   -1.5168507279
H       -0.6847027712   -1.8513088855   -2.2260019527
H        0.4107628828   -0.5046358451   -2.5765288081
H       -1.3391701784    0.1584373401   -0.8708224661
H       -0.8199092886   -1.1664318299    0.1684541950
H       -1.0736997150    1.0084271396    1.4792991849
H        0.3501699996    2.0720175471    1.5637686137
H        1.4632692494   -0.1076934992    0.3187304774
14   
Generated by ForceBalance from scan.xyz: Frame 4 of 24
C        0.2148851216   -1.0607405565   -1.6457495083
C        0.0960950983   -0.7318989513   -0.1563841122
C       -0.2368342194    1.0366273365    1.6505921076
C       -0.2506134964    0.7246413945    0.1433243254
Cl       1.0441421473    2.2529747870    2.0690571246
Cl      -1.8932224450    1.1582883144   -0.5514478638
H        0.9578734585   -0.4185210145   -2.1316809838
H        0.5282758751   -2.1001607569   -1.7832682012
H       -0.7393349994   -0.9220295909   -2.1603709234
H       -0.6446748439   -1.3832777798    0.3222077683
H        1.0566176538   -0.9255664988    0.3403894433
H       -0.0158277793    0.1431572431    2.2355993767
H       -1.1806595579    1.4606879716    1.9853979610
H        0.4371269784    1.3895550891   -0.3789779457
14   
Generated by ForceBalance from scan.xyz: Frame 5 of 24
C        0.1784189631   -1.0636089340   -1.6422573370
C        0.0744275015   -0.7299577660   -0.1524078021
C       -0.1929525395    1.0361849339    1.6560853618
C       -0.1818270005    0.7481561418    0.1473518651
Cl       0.8119029464    2.4841502046    2.0835913413
Cl      -1.7826331305    1.2681729821   -0.5801274580
H        0.9659527795   -0.4723575404   -2.1227062319
H        0.4217302931   -2.1217486173   -1.7789095925
H       -0.7609193619   -0.8604435695   -2.1623947768
H       -0.7082429507   -1.3344431937    0.3211270619
H        1.0191526631   -0.9876921961    0.3449432760
H        0.2435095809    0.2011463955    2.2059556960
H       -1.1982544867    1.2232998362    2.0276742820
H        0.5627022257    1.3680862512   -0.3523094728
14   
Generated by ForceBalance from scan.xyz: Frame 6 of 24
C        0.1623640610   -1.0810981068   -1.6543938951
C        0.0495435246   -0.7497503087   -0.1641304062
C       -0.1804138016    1.0049026620    1.6436089398
C       -0.1316464897    0.7403945493    0.1389341990
Cl       0.5039360667    2.6236411030    2.0828100856
Cl      -1.6803160591    1.3472652159   -0.6261409910
H        0.9865204236   -0.5277114496   -2.1181678618
H        0.3552694561   -2.1494999715   -1.7916967631
H       -0.7563721704   -0.8292663127   -2.1895004927
H       -0.7742543577   -1.3127480638    0.2903015544
H        0.9693389355   -1.0643919995    0.3465781419
H        0.4378036370    0.2739338293    2.1680006292
H       -1.1977571027    0.9600634945    2.0293990391
H        0.6653151388    1.3220351149   -0.3260750785
14   
Generated by ForceBalance from scan.xyz: Frame 7 of 24
C        0.1465840716   -1.0913269236   -1.6529953597
C        0.0118569674   -0.7594221826   -0.1642302989
C       -0.1439950149    1.0008545585    1.6349162497
C       -0.1016136312    0.7380363302    0.1358480810
Cl       0.2084686071    2.7259919466    2.0495976670
Cl      -1.6094937241    1.4213431907   -0.6379970535
H        1.0154060846   -0.5871899072   -2.0905710960
H        0.2781308591   -2.1688684371   -1.7912562391
H       -0.7401857308   -0.7817279086   -2.2112599440
H       -0.8530480351   -1.2785211336    0.2647899894
H        0.8993910178   -1.1254008952    0.3688087407
H        0.6278320026    0.4086197636    2.1310961110
H       -1.1189099890    0.7536306896    2.0552434035
H        0.7274774657    1.2832372278   -0.3192260835
14   
Generated by ForceBalance from scan.xyz: Frame 8 of 24
C        0.1438555186   -1.0936915352   -1.6465585194
C       -0.0317305589   -0.7591348977   -0.1624698858
C       -0.0979459636    0.9987147943    1.6366197869
C       -0.0852935320    0.7412405658    0.1363148151
Cl      -0.0797589492    2.7520050708    2.0707343723
Cl      -1.5488953268    1.4964969188   -0.6476438338
H        1.0577076579   -0.6406084838   -2.0465261650
H        0.2166383697   -2.1766087091   -1.7862611945
H       -0.7005449124   -0.7297013638   -2.2369988434
H       -0.9386264284   -1.2331551704    0.2296780689
H        0.8134961079   -1.1722638049    0.4042860579
H        0.7947130232    0.5565421450    2.0842923527
H       -0.9875456459    0.5673008373    2.0981314108
H        0.7667255396    1.2527308035   -0.3176126069
14   
Generated by ForceBalance from scan.xyz: Frame 9 of 24
C        0.1403753014   -1.1080839219   -1.6403737156
C       -0.0778336921   -0.7546329984   -0.1666058803
C       -0.0497122579    1.0023982208    1.6281747676
C       -0.0741296807    0.7480646895    0.1210437618
Cl      -0.3520184942    2.7102088615    2.1248908915
Cl      -1.4859297516    1.5659114948   -0.6870736905
H        1.0901782338   -0.7028106154   -2.0064731441
H        0.1653310559   -2.1941128365   -1.7725719782
H       -0.6617621016   -0.7068702762   -2.2648838255
H       -1.0222442898   -1.1793448811    0.1916821231
H        0.7214234851   -1.2045082582    0.4383180235
H        0.9319396844    0.7231197249    2.0161922841
H       -0.8154616353    0.4049691990    2.1265651546
H        0.7988052495    1.2198790085   -0.3369263768
14   
Generated by ForceBalance from scan.xyz: Frame 10 of 24
C        0.1160077589   -1.1174106824   -1.6310462936
C       -0.1165459848   -0.7389417150   -0.1661716482
C       -0.0137479338    1.0187301205    1.6287225293
C       -0.0531576553    0.7634817798    0.1111663767
Cl      -0.6164649684    2.6193689513    2.1975043689
Cl      -1.3994056978    1.6429026313   -0.7392297619
H        1.0909470063   -0.7600261058   -1.9807880144
H        0.0935956471   -2.2047504161   -1.7525759934
H       -0.6533864679   -0.6860731121   -2.2763320989
H       -1.0851070989   -1.1179598146    0.1790937219
H        0.6501413217   -1.2164757707    0.4601214230
H        1.0169376023    0.9188269746    1.9735447719
H       -0.6310083981    0.2807839568    2.1443425014
H        0.8464299094    1.1886802831   -0.3401986221
14   
Generated by ForceBalance from scan.xyz: Frame 11 of 24
C        0.0892262591   -1.1262719788   -1.6256070579
C       -0.1442228098   -0.7275769246   -0.1666506010
C        0.0196949360    1.0338004465    1.6351597293
C       -0.0127083603    0.7708833891    0.1074327790
Cl      -0.8669330945    2.4747176828    2.2561784510
Cl      -1.2878669762    1.7075471000   -0.7886696102
H        1.0826804942   -0.8129888653   -1.9657970915
H        0.0227788261   -2.2126855628   -1.7393621632
H       -0.6529713709   -0.6683102330   -2.2841671147
H       -1.1336385513   -1.0582797723    0.1699413464
H        0.5916585635   -1.2366969468    0.4716284086
H        1.0573584064    1.1379580538    1.9546901901
H       -0.4232386645    0.1856230517    2.1590412816
H        0.9168031107    1.1443442994   -0.3276748123
14   
Generated by ForceBalance from scan.xyz: Frame 12 of 24
C        0.0449880514   -1.1342974930   -1.6263161445
C       -0.1612816770   -0.7162746087   -0.1688202003
C        0.0485434171    1.0587328431    1.6341241458
C        0.0505947294    0.7746730161    0.1028673626
Cl      -1.1014197578    2.2975202137    2.2608244822
Cl      -1.1416131799    1.7643334067   -0.8469557420
H        1.0475372358   -0.8625444127   -1.9759403456
H       -0.0637348452   -2.2183410573   -1.7302762259
H       -0.6829512059   -0.6539922697   -2.2844769690
H       -1.1644683874   -0.9947885550    0.1748419012
H        0.5520478659   -1.2598503826    0.4661187764
H        1.0417629093    1.3857041834    1.9424181574
H       -0.1984469578    0.1423563654    2.1707110367
H        1.0166231071    1.0857151656   -0.3001015420
14   
Generated by ForceBalance from scan.xyz: Frame 13 of 24
C        0.0131210813   -1.1443381504   -1.6271138471
C       -0.1859656303   -0.7131419391   -0.1723886472
C        0.0631742404    1.0721186187    1.6270738783
C        0.1026838388    0.7655635621    0.1031060744
Cl      -1.3207821825    2.0500117216    2.2436260921
Cl      -1.0219601005    1.7986530805   -0.8835595184
H        1.0304453214   -0.9207466383   -1.9684908299
H       -0.1449607471   -2.2225164384   -1.7288024838
H       -0.6854420262   -0.6336613688   -2.2940616186
H       -1.2060362356   -0.9378014521    0.1606327790
H        0.4910049600   -1.2939453414    0.4687550780
H        0.9564207618    1.6278867365    1.9126689642
H        0.0420926595    0.1349617466    2.1834894283
H        1.0978586453    1.0217315225   -0.2670384572
14   
Generated by ForceBalance from scan.xyz: Frame 14 of 24
C       -0.0140698269   -1.1420338967   -1.6255384395
C       -0.2094242320   -0.7069816838   -0.1714008483
C        0.0835525979    1.0768347606    1.6241989444
C        0.1522956695    0.7540508244    0.1148888406
Cl      -1.4740788009    1.7562157892    2.2305134089
Cl      -0.9056719731    1.8424648297   -0.8866092660
H        1.0181537463   -0.9719640820   -1.9529807526
H       -0.2282525084   -2.2097688026   -1.7344970739
H       -0.6757311890   -0.5926326990   -2.2993570452
H       -1.2438998289   -0.8796022111    0.1466149332
H        0.4281888666   -1.3241547493    0.4757452575
H        0.8350806768    1.8246045609    1.8793336602
H        0.2796139941    0.1697783388    2.1971944564
H        1.1717701833    0.9589767661   -0.2222254364
14   
Generated by ForceBalance from scan.xyz: Frame 15 of 24
C       -0.0334503471   -1.1356137679   -1.6111387819
C       -0.2424302662   -0.6854565732   -0.1633511825
C        0.1259283301    1.1062414440    1.6135216236
C        0.1958951711    0.7531053279    0.1235221464
Cl      -1.5265705928    1.4865182281    2.2349023077
Cl      -0.7929493609    1.9050037084   -0.8813423673
H        1.0152016689   -1.0278435751   -1.9117147470
H       -0.3077138537   -2.1889293943   -1.7253172976
H       -0.6439334299   -0.5496145037   -2.3025506284
H       -1.2927050299   -0.7962410323    0.1262385442
H        0.3406745004   -1.3336711192    0.5045809589
H        0.7231669804    1.9954101116    1.8190878589
H        0.5113534243    0.2718696104    2.2023921705
H        1.2311189026    0.9023675273   -0.1977833857
14   
Generated by ForceBalance from scan.xyz: Frame 16 of 24
C       -0.0338087428   -1.1533547391   -1.6041660230
C       -0.2831919609   -0.6849855951   -0.1685413611
C        0.1460445968    1.1234462794    1.5915394681
C        0.2075343451    0.7336079601    0.1191788362
Cl      -1.5299837950    1.1965241732    2.2659743481
Cl      -0.7119328649    1.9412688432   -0.8933171930
H        1.0308932486   -1.1024870760   -1.8597499942
H       -0.3585463106   -2.1910361961   -1.7279770788
H       -0.5827645587   -0.5388288868   -2.3223446476
H       -1.3473093175   -0.7473205819    0.0772610644
H        0.2418838804   -1.3498949981    0.5307407127
H        0.5797860542    2.1115943192    1.7470841945
H        0.6968044036    0.3879803842    2.1825136524
H        1.2515477807    0.8408245544   -0.1930558507
14   
Generated by ForceBalance from scan.xyz: Frame 17 of 24
C       -0.0195716907   -1.1728015387   -1.6072357047
C       -0.3312041001   -0.6870647051   -0.1895583982
C        0.1444719780    1.1251250353    1.5755701075
C        0.1966845762    0.7124850347    0.1110426287
Cl      -1.4758492472    0.8906105955    2.3484036250
Cl      -0.6489479588    1.9676421412   -0.9172703952
H        1.0596335817   -1.1789191529   -1.7986278017
H       -0.3909249261   -2.1920402301   -1.7510287433
H       -0.4917871735   -0.5318364425   -2.3565372078
H       -1.4081281434   -0.7081526520   -0.0033832720
H        0.1265885207   -1.3636637550    0.5447640620
H        0.4067126626    2.1754473296    1.6979954287
H        0.8441300797    0.5062218838    2.1429200313
H        1.2467608667    0.7877870752   -0.1909625535
14   
Generated by ForceBalance from scan.xyz: Frame 18 of 24
C       -0.0283077574   -1.1745128971   -1.6028205428
C       -0.3719615296   -0.6694413541   -0.1993440028
C        0.1392158746    1.1486111223    1.5746993891
C        0.2044776865    0.7063427820    0.1138442981
Cl      -1.3698197239    0.6511583999    2.4473795152
Cl      -0.5320476212    1.9995183613   -0.9589834707
H        1.0560465184   -1.2253830367   -1.7543105350
H       -0.4349930827   -2.1789422686   -1.7549020226
H       -0.4463036484   -0.5198981353   -2.3722337194
H       -1.4545196199   -0.6455133778   -0.0513683332
H        0.0288749134   -1.3601521364    0.5544962726
H        0.2259256906    2.2296281646    1.6684950334
H        0.9561703870    0.6716363697    2.1212283252
H        1.2636090898    0.7306513371   -0.1615477578
14   
Generated by ForceBalance from scan.xyz: Frame 19 of 24
C       -0.0517780750   -1.1708140981   -1.5936682043
C       -0.4022923677   -0.6500198915   -0.1975528815
C        0.1401984451    1.1750952458    1.5881916669
C        0.2357877243    0.6948246678    0.1300129150
Cl      -1.2093655210    0.4443482653    2.5576323419
Cl      -0.3860017914    2.0139036094   -0.9882090433
H        1.0326373948   -1.2628279187   -1.7241974533
H       -0.4924008178   -2.1602620929   -1.7497081609
H       -0.4300376470   -0.5046785232   -2.3734603359
H       -1.4857024965   -0.5736281908   -0.0735197142
H       -0.0534937568   -1.3602806470    0.5626306280
H        0.0230573214    2.2548679601    1.6462588730
H        1.0500595950    0.8859154885    2.1171251608
H        1.3006255131    0.6558384043   -0.1151607053
14   
Generated by ForceBalance from scan.xyz: Frame 20 of 24
C       -0.0692418526   -1.1710368287   -1.6041585245
C       -0.4233515168   -0.6379301709   -0.2135244118
C        0.1218450575    1.1962020155    1.5826983598
C        0.2796844222    0.6698343421    0.1362721423
Cl      -1.0235481131    0.2600582369    2.6374424625
Cl      -0.2321593640    2.0021514985   -1.0241144859
H        1.0114518783   -1.3220846353   -1.7084329635
H       -0.5589330513   -2.1350120525   -1.7730909421
H       -0.3913428754   -0.4847439547   -2.3914120041
H       -1.5043577320   -0.5062984822   -0.1121280660
H       -0.1281724216   -1.3707038993    0.5463360669
H       -0.2379129150    2.2219829539    1.5905638986
H        1.0820638125    1.1544931787    2.0973795719
H        1.3479435944    0.5640783504   -0.0654009960
14   
Generated by ForceBalance from scan.xyz: Frame 21 of 24
C        0.1041188980   -1.2230997967   -1.7792060374
C       -0.3360674537   -0.6329056352   -0.4367898185
C        0.1985492266    1.1435277952    1.4187204731
C        0.5288540062    0.5337207624    0.0338281054
Cl      -0.9554585010    0.1777586772    2.4394498772
Cl       0.4320332476    1.9053493033   -1.1880026402
H        1.1531812907   -1.5395429066   -1.7478012505
H       -0.5022944750   -2.1019921909   -2.0188943518
H       -0.0060407671   -0.5027442226   -2.5934838403
H       -1.3828693187   -0.3160252400   -0.4769662011
H       -0.2749344501   -1.4061368980    0.3362270852
H       -0.2766012042    2.1146281915    1.3045550545
H        1.1046610040    1.2597838968    2.0125777035
H        1.5788323726    0.2351775991    0.0138959128
14   
Generated by ForceBalance from scan.xyz: Frame 22 of 24
C        0.0867206907   -1.2238492330   -1.7911541609
C       -0.3591203300   -0.6213524789   -0.4559331299
C        0.1651246398    1.1425552948    1.3953142070
C        0.5482128355    0.4987317909    0.0480214845
Cl      -0.7155681945    0.0346991678    2.5382824081
Cl       0.5372381332    1.8779925616   -1.1688039399
H        1.1154950246   -1.5974820729   -1.7312272575
H       -0.5588835310   -2.0667768480   -2.0561966788
H        0.0403804544   -0.4929505639   -2.6021726514
H       -1.3874027992   -0.2498586042   -0.5220852874
H       -0.3576864456   -1.4029027693    0.3100288232
H       -0.5208589990    1.9712175044    1.2322849547
H        1.0477295017    1.5053300048    1.9209834832
H        1.5843166413    0.1552771532    0.0734775176
14   
Generated by ForceBalance from scan.xyz: Frame 23 of 24
C        0.0822484253   -1.2190110153   -1.7888965436
C       -0.3811997800   -0.5879140753   -0.4729525523
C        0.1427994877    1.1458136070    1.3810559614
C        0.5649380779    0.4818648190    0.0662774772
Cl      -0.4422780455   -0.0433499576    2.6269093848
Cl       0.6602501847    1.8690361139   -1.1371936788
H        1.0844202748   -1.6508664118   -1.6865012386
H       -0.5990947810   -2.0239633224   -2.0809019686
H        0.1115109239   -0.4878631515   -2.6006427319
H       -1.3822379417   -0.1554033831   -0.5826907226
H       -0.4565748470   -1.3653829611    0.2934394523
H       -0.6950842079    1.8203886712    1.2091079070
H        0.9691577717    1.6982361831    1.8268090223
H        1.5822469983    0.0919213840    0.1409716521
14   
Generated by ForceBalance from scan.xyz: Frame 24 of 24
C        0.1010652133   -1.2253003422   -1.7841700087
C       -0.4054736846   -0.5500868735   -0.5068580445
C        0.1152170203    1.1168543903    1.3864955041
C        0.5637102973    0.4726569382    0.0779997426
Cl      -0.1411450475   -0.1277061002    2.6881210929
Cl       0.7649144419    1.8767732902   -1.0902780525
H        1.0627111058   -1.7216609491   -1.6114300251
H       -0.6108792088   -1.9857693321   -2.1191846066
H        0.2336530613   -0.5039701510   -2.5947743495
H       -1.3691902203   -0.0597174551   -0.6870143539
H       -0.5742594990   -1.3084549831    0.2647121052
H       -0.8358083428    1.6344667191    1.2584570860
H        0.8656097816    1.8121734047    1.7601548875
H        1.5625134112    0.0453493682    0.1897097799
