16   

C        0.5855014599    0.8839932772    1.7735694749
C        0.3370316934    0.8966907707    3.1263844513
C       -0.2603165304    0.1621774778    0.9625281769
C       -4.2766794770   -1.9990833744    4.4806282393
C       -4.3278219213   -2.6097306223    3.2706309078
C       -1.4934568340   -0.4679937987    2.7986909337
C       -2.6556103790   -1.2100371894    3.3143732217
N       -0.6904583830    0.2290353641    3.6342343940
N       -1.2902884055   -0.5056209028    1.4705701510
N       -3.2196027328   -1.1199490757    4.4892672797
O       -3.3142967763   -2.1282570673    2.5145242896
H        1.4226436604    1.4278328831    1.3598517613
H        0.9861169805    1.4578350740    3.7890114434
H       -0.0858893216    0.1375391525   -0.1070767437
H       -4.9586295336   -2.1744572450    5.3044319908
H       -5.0533466853   -3.3526772886    2.9625252398
16   

C        0.5814579632    0.8904484535    1.7745112199
C        0.3920460591    0.8245616156    3.1355050657
C       -0.3141308014    0.2362511520    0.9592341461
C       -4.3303139917   -1.9291474684    4.4448102747
C       -4.2490736587   -2.6936163499    3.3269263771
C       -1.4777479449   -0.4832503314    2.8063988359
C       -2.6427222414   -1.2214117697    3.3261236023
N       -0.6263332178    0.1458748424    3.6473540841
N       -1.3356500983   -0.4417875513    1.4708379040
N       -3.3131256816   -1.0040693353    4.4248001171
O       -3.1901761563   -2.2652572904    2.6013823064
H        1.4111082611    1.4433706532    1.3577480688
H        1.0807510952    1.3322103826    3.8012745110
H       -0.1869177489    0.2750031139   -0.1165933022
H       -5.0771341149   -2.0292541410    5.2237266861
H       -4.9158900162   -3.5045812411    3.0604988033
16   

C        0.5692392645    0.8925849313    1.7805005492
C        0.4392364915    0.7463503335    3.1424940489
C       -0.3789385731    0.3120069801    0.9684818752
C       -4.3943015590   -1.8645348827    4.4026781514
C       -4.1831648927   -2.7644505434    3.4089049863
C       -1.4752862876   -0.4932138506    2.8191821012
C       -2.6448301174   -1.2267187641    3.3449546727
N       -0.5726417540    0.0609212030    3.6587076959
N       -1.3944189507   -0.3722256736    1.4839204559
N       -3.4176458492   -0.8981300261    4.3419975164
O       -3.0812992469   -2.3816521015    2.7225869745
H        1.3934956580    1.4511174586    1.3605141105
H        1.1700320791    1.1956068806    3.8053477090
H       -0.2989182497    0.4153448948   -0.1076284419
H       -5.2035209956   -1.8994721418    5.1226959714
H       -4.7912659011   -3.6361464691    3.1999576567
16   

C        0.5638195125    0.8998856576    1.7757134542
C        0.4873550954    0.6663053673    3.1298856698
C       -0.4385158781    0.4068219968    0.9703728240
C       -4.4647374424   -1.8017083307    4.3194852380
C       -4.1210134567   -2.8130735268    3.4816154936
C       -1.4813653195   -0.4822925105    2.8107191904
C       -2.6595605159   -1.2108311084    3.3375966994
N       -0.5254777408   -0.0187069735    3.6453601022
N       -1.4549736009   -0.2768829486    1.4846615471
N       -3.5330299148   -0.7959078995    4.2082981269
O       -2.9795454174   -2.4614258978    2.8448877846
H        1.3886844850    1.4582150858    1.3566383403
H        1.2617553250    1.0455418512    3.7869640286
H       -0.4007473654    0.5797821646   -0.0990951804
H       -5.3344866185   -1.7873978363    4.9658774440
H       -4.6660301809   -3.7391061709    3.3447578108
16   

C        0.5712806520    0.8974600858    1.7822017103
C        0.5346241468    0.5674279723    3.1180401228
C       -0.4835058667    0.5119124278    0.9848693060
C       -4.5393888316   -1.7507951083    4.2208940249
C       -4.0586821410   -2.8464146550    3.5789240186
C       -1.4997784989   -0.4566916257    2.7973529361
C       -2.6907725131   -1.1803801207    3.3168223428
N       -0.4909940319   -0.1058420328    3.6241620885
N       -1.5121980661   -0.1604925895    1.4896705408
N       -3.6616811886   -0.7073330203    4.0382544482
O       -2.8849196090   -2.5093215922    2.9951187432
H        1.4063478509    1.4463192460    1.3708811393
H        1.3515696649    0.8596174978    3.7680355563
H       -0.4769174738    0.7607634123   -0.0701852166
H       -5.4654950532   -1.7054164576    4.7819348838
H       -4.5322707895   -3.8198004229    3.5394584470
16   

C        0.5728637556    0.8985271147    1.7921935422
C        0.5547421174    0.4515452498    3.0937975548
C       -0.5248181034    0.6456304624    0.9998265470
C       -4.6328039867   -1.7127864856    4.0828838760
C       -4.0184513241   -2.8520756778    3.6727299489
C       -1.5489509433   -0.4156586591    2.7548189642
C       -2.7533230178   -1.1393395868    3.2498830875
N       -0.4949823120   -0.2043272516    3.5728560699
N       -1.5764881397   -0.0104606281    1.4779384327
N       -3.8145575981   -0.6419060840    3.8064434467
O       -2.8209125669   -2.5140802170    3.1399919911
H        1.4272542563    1.4334297535    1.4027579429
H        1.4066019403    0.6352171209    3.7386764080
H       -0.5328338504    0.9856437771   -0.0294622265
H       -5.6084073334   -1.6570185177    4.5514891746
H       -4.4167532343   -3.8558585553    3.7570491815
16   

C        0.5763001892    0.9058282728    1.8010989206
C        0.5773186272    0.3382200659    3.0547194374
C       -0.5542007346    0.7735742544    1.0260085972
C       -4.6913688634   -1.7242684342    3.9297574046
C       -3.9648628714   -2.8590126055    3.7626405541
C       -1.5753462498   -0.4000753966    2.7110917457
C       -2.7829038375   -1.1348424342    3.1739509294
N       -0.4861416611   -0.3152287169    3.5060736209
N       -1.6187545650    0.1188600123    1.4763408526
N       -3.9230281567   -0.6454708796    3.5578152902
O       -2.7467854607   -2.5107786957    3.2860565312
H        1.4416492562    1.4391238126    1.4343232775
H        1.4559139146    0.4231115645    3.6841123624
H       -0.5774145858    1.2078179701    0.0330346828
H       -5.7089683760   -1.6766753103    4.2995214051
H       -4.3005749210   -3.8667727855    3.9748765575
16   

C        0.5760402177    0.9225990302    1.8083050040
C        0.6090882838    0.2538169505    3.0104662550
C       -0.5861775275    0.8821697397    1.0709107889
C       -4.7198663120   -1.7418087442    3.8105798804
C       -3.9205339387   -2.8369104293    3.8800838710
C       -1.5766016481   -0.3981200293    2.6974939077
C       -2.7800939182   -1.1407983584    3.1415150940
N       -0.4543805687   -0.4073961890    3.4503976933
N       -1.6504791918    0.2192979022    1.5091575262
N       -3.9783566284   -0.6785839134    3.3504301465
O       -2.6826286112   -2.4803184114    3.4647148663
H        1.4413767647    1.4625203423    1.4513301120
H        1.5133535951    0.2643678345    3.6083501221
H       -0.6348704093    1.3962748660    0.1177981839
H       -5.7693248660   -1.7099571852    4.0791207083
H       -4.2202747652   -3.8235257384    4.2118438011
16   

C        0.5699514815    0.9334856429    1.8093481681
C        0.6392459981    0.1796224696    2.9584100714
C       -0.6224658613    0.9667699964    1.1215401979
C       -4.7348143676   -1.7811257365    3.7042599179
C       -3.8940105111   -2.8063783806    3.9946940400
C       -1.5707774573   -0.4111713810    2.6943552372
C       -2.7686437239   -1.1575242146    3.1312680206
N       -0.4182662701   -0.4927053375    3.3958837188
N       -1.6808212062    0.2929535143    1.5568374322
N       -4.0049188901   -0.7459769222    3.1683711019
O       -2.6406246586   -2.4341553901    3.6447038653
H        1.4305939068    1.4823912764    1.4547364358
H        1.5676357525    0.1315252953    3.5161289942
H       -0.7003096398    1.5490307683    0.2104932766
H       -5.8054501667   -1.7775410939    3.8722179235
H       -4.1762293223   -3.7563409098    4.4320016683
16   

C        0.5608711799    0.9443772067    1.8087312336
C        0.6630320447    0.1171061845    2.9035088799
C       -0.6583396950    1.0428281372    1.1764460251
C       -4.7429979461   -1.8277804030    3.6097682707
C       -3.8861258936   -2.7564509286    4.1048648071
C       -1.5667023552   -0.4218526282    2.6951361807
C       -2.7608623401   -1.1667580728    3.1327682215
N       -0.3881474537   -0.5644384373    3.3419949153
N       -1.7105248848    0.3603973664    1.6127078023
N       -4.0153890222   -0.8292402137    3.0061071347
O       -2.6242770594   -2.3592566917    3.8187599860
H        1.4166222427    1.5003568140    1.4533083295
H        1.6125453040    0.0180406800    3.4172059319
H       -0.7628901274    1.6847547799    0.3092149452
H       -5.8236583288   -1.8655985066    3.6820059630
H       -4.1632558041   -3.6580344654    4.6374594526
16   

C        0.5517651923    0.9601101598    1.8144117107
C        0.6792432312    0.0670513968    2.8533325565
C       -0.6894090405    1.1209157872    1.2404716524
C       -4.7449315373   -1.8759533613    3.5324663372
C       -3.8931334178   -2.6825250103    4.2144039757
C       -1.5674453144   -0.4204457477    2.7012357553
C       -2.7603092496   -1.1609466298    3.1439190763
N       -0.3680535715   -0.6197267503    3.2929221293
N       -1.7378423245    0.4339711890    1.6783088960
N       -4.0140596502   -0.9205851970    2.8664543822
O       -2.6311351916   -2.2499210700    3.9864981696
H        1.4046157372    1.5196697631    1.4576412583
H        1.6458543378   -0.0803458344    3.3215342550
H       -0.8148361449    1.8169534956    0.4189566239
H       -5.8245634441   -1.9688569528    3.5171774598
H       -4.1737920466   -3.5255588645    4.8339469019
16   

C        0.5490480889    0.9715130854    1.8276903715
C        0.6933538877    0.0150052203    2.8061481025
C       -0.7084557671    1.1943943149    1.3131710255
C       -4.7365159251   -1.9344117421    3.4596914390
C       -3.9122958700   -2.5985533495    4.3085179814
C       -1.5672838730   -0.4194497466    2.7059281953
C       -2.7615353951   -1.1545346662    3.1522033422
N       -0.3528689921   -0.6752276482    3.2428790390
N       -1.7560094260    0.5048648835    1.7489051560
N       -3.9947168180   -1.0285273564    2.7389717164
O       -2.6571333902   -2.1235791954    4.1335096607
H        1.4012456900    1.5331043477    1.4725564646
H        1.6725742060   -0.1803401577    3.2283368607
H       -0.8478368777    1.9427733643    0.5414267991
H       -5.8045158471   -2.0925017058    3.3656114815
H       -4.2069764436   -3.3739447614    5.0051100441
16   

C        0.5483419866    0.9783891033    1.8403688844
C        0.7025063446   -0.0395923362    2.7531287819
C       -0.7205953408    1.2628410408    1.3879545778
C       -4.7186682606   -2.0042251371    3.3931032861
C       -3.9414911089   -2.5077047888    4.3849037226
C       -1.5694809895   -0.4189194107    2.7038512655
C       -2.7662633005   -1.1489628187    3.1532201611
N       -0.3448471203   -0.7316161437    3.1842872543
N       -1.7694755096    0.5722733125    1.8189647141
N       -3.9608223167   -1.1526407893    2.6243712614
O       -2.7006410280   -1.9833885037    4.2540866927
H        1.4015887280    1.5407488471    1.4889868520
H        1.6905306960   -0.2826402137    3.1273090545
H       -0.8681085127    2.0618320552    0.6703610325
H       -5.7648418300   -2.2370365175    3.2325126637
H       -4.2583162127   -3.2078363936    5.1482820464
16   

C        0.6417385096    0.8356201347    1.8342296496
C       -0.3367761591    1.4505483835    2.5810641802
C        0.5000846167   -0.5039643624    1.5488636989
C       -3.9512801197   -2.8852067467    3.8636130487
C       -4.6585311381   -1.7269773989    3.8551747858
C       -1.4726472766   -0.5480637769    2.7248364727
C       -2.6255460079   -1.3481765063    3.1755755822
N       -1.3876453786    0.7685876755    3.0196592371
N       -0.5514015026   -1.1873322576    1.9853474193
N       -2.6694849395   -2.6259683864    3.4385339312
O       -3.8403341443   -0.7377230847    3.4264396434
H        1.4979539678    1.3909876278    1.4789671041
H       -0.2519073311    2.5053969303    2.8163659930
H        1.2555738257   -1.0097711469    0.9585367759
H       -4.3336316426   -3.8548061845    4.1605304867
H       -5.6966765368   -1.6132818076    4.1426438281
16   

C        0.6332860980    0.8410412959    1.8268440438
C       -0.3004211845    1.4247646604    2.6520713856
C        0.4521806801   -0.4749989158    1.4644103178
C       -3.9290392105   -2.8666546878    3.9558498508
C       -4.6852815560   -1.7619402608    3.7318209346
C       -1.4661305941   -0.5597737231    2.7231230822
C       -2.6216733901   -1.3634341186    3.1721693703
N       -1.3451571750    0.7347393574    3.0927011958
N       -0.5936414797   -1.1661988809    1.9027220242
N       -2.6276872697   -2.5930315791    3.6050361616
O       -3.8787036283   -0.7931969372    3.2388601948
H        1.4848217257    1.4026494501    1.4701427288
H       -0.1848469415    2.4612229345    2.9481635051
H        1.1711602216   -0.9552963006    0.8105927385
H       -4.2911897845   -3.8083862142    4.3514154254
H       -5.7486328132   -1.6705492287    3.9168769549
16   

C        0.6265682322    0.8552033576    1.8245712279
C       -0.2505550470    1.4007950998    2.7337128402
C        0.3976026884   -0.4304017726    1.3876169673
C       -3.9090109119   -2.8236978037    4.0715807842
C       -4.6928710014   -1.8064405569    3.6313971271
C       -1.4537984945   -0.5619593934    2.7370103695
C       -2.6089975001   -1.3690837869    3.1965672664
N       -1.2865487404    0.7029173420    3.1824811468
N       -0.6398043041   -1.1291633807    1.8345128499
N       -2.5951895841   -2.5240685446    3.7956881570
O       -3.8907754350   -0.8683680351    3.0757334863
H        1.4710823472    1.4229120223    1.4609005344
H       -0.0971441563    2.4131617016    3.0898744387
H        1.0711984091   -0.8799928324    0.6670370577
H       -4.2611335978   -3.7222632601    4.5646139789
H       -5.7717448500   -1.7535096693    3.7123202563
16   

C        0.6127413755    0.8572067799    1.8128070887
C       -0.1920665367    1.3647592097    2.8069994960
C        0.3169487250   -0.3887429125    1.3064434419
C       -3.9106295522   -2.7659410343    4.1811032684
C       -4.7006692889   -1.8772701399    3.5257520971
C       -1.4582469152   -0.5563153344    2.7487684390
C       -2.6115783175   -1.3634286152    3.2290920036
N       -1.2234176592    0.6684696049    3.2686908853
N       -0.7156806128   -1.0860516851    1.7670537892
N       -2.5938726319   -2.4188595949    3.9857099661
O       -3.8987253654   -0.9738248056    2.9151914355
H        1.4533115955    1.4235629059    1.4380539791
H        0.0152272699    2.3453231202    3.2202735197
H        0.9333538613   -0.8079004412    0.5193885857
H       -4.2610146214   -3.6085599317    4.7656740322
H       -5.7834467989   -1.8882728405    3.4974838759
16   

C        0.6069069443    0.8531001435    1.8031264604
C       -0.1028629436    1.3289370394    2.8820607217
C        0.2133991358   -0.3393272751    1.2374628775
C       -3.9162539560   -2.6688156982    4.3135733457
C       -4.6906059483   -1.9552612754    3.4563368662
C       -1.4743504222   -0.5152003559    2.7788121827
C       -2.6236319271   -1.3123750311    3.2916249820
N       -1.1384308394    0.6541771167    3.3656773331
N       -0.8227560545   -1.0161177907    1.7205709239
N       -2.6128503108   -2.2452491045    4.1933172265
O       -3.8918907207   -1.0851507856    2.7951927671
H        1.4506637218    1.4021901226    1.4102667890
H        0.1841811796    2.2662029412    3.3451023331
H        0.7553772302   -0.7331336456    0.3852393392
H       -4.2682741327   -3.4450443911    4.9829414834
H       -5.7603251837   -2.0632195992    3.3245038011
16   

C        0.6044956789    0.8468538320    1.7948209802
C       -0.0101725728    1.2878330867    2.9447876387
C        0.1031607943   -0.2767154387    1.1757909700
C       -3.9517964468   -2.5382190298    4.4139265623
C       -4.6762124913   -2.0288017981    3.3847018093
C       -1.5082699164   -0.4512970737    2.7972532127
C       -2.6578079717   -1.2296652904    3.3307606956
N       -1.0596580816    0.6466228460    3.4435450249
N       -0.9461702170   -0.9213656854    1.6742781813
N       -2.6771100467   -2.0238054795    4.3582639729
O       -3.8756413866   -1.1949849849    2.6804190091
H        1.4594666714    1.3689934389    1.3896533942
H        0.3649268375    2.1692173739    3.4524597973
H        0.5708651398   -0.6429460125    0.2690175188
H       -4.3175883751   -3.2388775789    5.1553935537
H       -5.7131208755   -2.2517218039    3.1645853521
16   

C        0.6090672081    0.8395176533    1.7902804748
C        0.0671520261    1.2269693981    2.9946051463
C        0.0254334096   -0.2122003174    1.1197414458
C       -3.9998686412   -2.4219246107    4.4691667509
C       -4.6432977869   -2.1162074895    3.3134990709
C       -1.5277878163   -0.4203437647    2.7957815768
C       -2.6806488808   -1.1826799398    3.3308197095
N       -0.9922087323    0.6040395739    3.4951041632
N       -1.0335638144   -0.8391441317    1.6203392914
N       -2.7588060165   -1.8288773053    4.4575632802
O       -3.8259166144   -1.3321600953    2.5724287313
H        1.4720739640    1.3469541622    1.3834814244
H        0.5087029127    2.0503111179    3.5445226328
H        0.4358304182   -0.5364232953    0.1702377818
H       -4.3975024969   -3.0375183826    5.2675544500
H       -5.6366573349   -2.4440479497    3.0323102517
16   

C        0.6029066489    0.8476689580    1.7913415847
C        0.1236726059    1.1674207608    3.0409040397
C       -0.0436255355   -0.1353925810    1.0764477692
C       -4.0549535314   -2.3172483380    4.5119592292
C       -4.6010896089   -2.2068113630    3.2744009864
C       -1.5379093742   -0.4096308674    2.7990505095
C       -2.6924606036   -1.1631347926    3.3296527631
N       -0.9359430327    0.5456957984    3.5417635930
N       -1.1030646304   -0.7609637122    1.5777469089
N       -2.8478532445   -1.6583059102    4.5254558056
O       -3.7559602188   -1.4814764974    2.5054283157
H        1.4661158251    1.3542207365    1.3838848173
H        0.6153697789    1.9357063391    3.6267707112
H        0.3167712736   -0.4061648837    0.0906019794
H       -4.4960339395   -2.8433541543    5.3504953899
H       -5.5474040383   -2.6272597862    2.9565771449
16   

C        0.6060241234    0.8576714261    1.7824152845
C        0.1831360633    1.1032969763    3.0682441396
C       -0.0917663324   -0.0604351794    1.0308178247
C       -4.1045448056   -2.2303674909    4.5174956070
C       -4.5374373973   -2.3088699305    3.2340944703
C       -1.5265763238   -0.4181013507    2.7906759977
C       -2.6826881491   -1.1680852169    3.3132557480
N       -0.8712569937    0.4726614650    3.5684995916
N       -1.1464673258   -0.6942013396    1.5317398107
N       -2.9323388767   -1.5121183562    4.5473881972
O       -3.6545497069   -1.6456762493    2.4518841414
H        1.4649738042    1.3715010884    1.3750842122
H        0.7152979907    1.8198109058    3.6836158385
H        0.2232812322   -0.2722987697    0.0154615193
H       -4.5999657458   -2.6658951035    5.3773480318
H       -5.4327186097   -2.8150114631    2.8941178965
16   

C        0.6015008614    0.8626468594    1.7787214504
C        0.2350532176    1.0327533538    3.0935547898
C       -0.1445495298    0.0077184975    0.9997988642
C       -4.1608234605   -2.1536618950    4.5179266037
C       -4.4713835705   -2.4181863189    3.2244126197
C       -1.5155532864   -0.4385121097    2.7915777259
C       -2.6734916508   -1.1861795937    3.3086164109
N       -0.8110322449    0.3899082247    3.5954178371
N       -1.1915707643   -0.6373323437    1.5023516696
N       -3.0253022578   -1.3791905543    4.5518199329
O       -3.5464274010   -1.8185413766    2.4397921781
H        1.4536627497    1.3864469343    1.3698394127
H        0.8052740066    1.6991207523    3.7307925064
H        0.1249236190   -0.1437324985   -0.0392071038
H       -4.7160341821   -2.4981351908    5.3825326952
H       -5.3124122381   -3.0070241889    2.8791217624
16   

C        0.5898080882    0.8762616245    1.7727203554
C        0.2840120199    0.9680419443    3.1105954587
C       -0.2076048001    0.0878749545    0.9748307028
C       -4.2211155937   -2.0703374497    4.5082958842
C       -4.4054239197   -2.5124785595    3.2395692355
C       -1.5081915876   -0.4497870830    2.7943051359
C       -2.6678672084   -1.1944533766    3.3104140411
N       -0.7525631339    0.3131525820    3.6165125340
N       -1.2458837770   -0.5681688463    1.4812459901
N       -3.1237759062   -1.2424826400    4.5340625255
O       -3.4373311054   -1.9737797603    2.4629309303
H        1.4342987031    1.4097742391    1.3604945740
H        0.8948015789    1.5817909197    3.7629128265
H        0.0129489683   -0.0005466225   -0.0828192119
H       -4.8379545936   -2.3277224251    5.3613638826
H       -5.1902341068   -3.1801745116    2.9055971976
