28   
Generated by ForceBalance from scan.xyz: Frame 1 of 24
C        2.4484135694   -1.5571135832    6.2353860595
C       -1.3948219931   -1.4834570662   -2.3965863497
C        2.0260874177   -0.4336304413    5.5162069411
C        2.1472747717   -2.8398031076    5.7655039404
C       -1.1488662015   -2.7813301604   -1.9346927871
C       -0.7727094308   -0.3864082258   -1.7888987873
C        1.3015477786   -0.5921336216    4.3332978730
C        1.4208676564   -2.9975122155    4.5829075523
C       -0.2847677177   -2.9888061796   -0.8557455149
C        0.0930823401   -0.5808332320   -0.7095262367
C        0.9858154964   -1.8748145839    3.8639285634
C        0.3191120617   -1.8821817967   -0.2546361306
C        0.2338658698   -2.0473973491    2.5787061069
O        1.9368577507   -3.5107441652    1.0997218458
O        2.3036440140   -0.9739842575    1.2434542884
S        1.4068912239   -2.1378673276    1.1571760108
H        3.0129559181   -1.4332708403    7.1559090835
H       -2.0651819085   -1.3269536617   -3.2375565919
H        2.2657013457    0.5642145500    5.8739318367
H        2.4798845723   -3.7151820629    6.3169960804
H       -1.6219674684   -3.6313929969   -2.4184732322
H       -0.9543170080    0.6182541793   -2.1606595895
H        0.9907873736    0.2802242516    3.7644652429
H        1.1997761881   -3.9935192957    4.2079885371
H       -0.0595099966   -3.9886248847   -0.4966822513
H        0.6069219597    0.2520174506   -0.2390518891
H       -0.3447081098   -2.9725292771    2.5378188385
H       -0.4183487568   -1.1974464546    2.3639984394
28   
Generated by ForceBalance from scan.xyz: Frame 2 of 24
C        2.4097562423   -1.3155878181    6.1633359175
C       -1.3537601598   -1.2455141733   -2.3106976629
C        1.8374168409   -0.3131346053    5.3725168380
C        2.2723416016   -2.6575919299    5.7936467903
C       -1.2304894730   -2.5921202040   -1.9507521290
C       -0.6236599658   -0.2620791691   -1.6325859923
C        1.1293260339   -0.6528862369    4.2184545258
C        1.5607203849   -2.9951659187    4.6399923466
C       -0.3819851157   -2.9635399040   -0.9037060805
C        0.2275703040   -0.6204221381   -0.5840603386
C        0.9781126160   -1.9958738029    3.8472110470
C        0.3298181062   -1.9680806225   -0.2309757591
C        0.2419304850   -2.3597623087    2.5942936927
O        1.8055722497   -3.8356532710    0.9700733749
O        2.3921011302   -1.3588124137    1.3033754766
S        1.3971486997   -2.4308612975    1.1441425295
H        2.9620140221   -1.0517195704    7.0615290109
H       -2.0125981615   -0.9623657267   -3.1273079404
H        1.9471575937    0.7311708037    5.6526809909
H        2.7198413064   -3.4394634836    6.4014966037
H       -1.7873962421   -3.3537045933   -2.4895452964
H       -0.7097573336    0.7806411061   -1.9256951906
H        0.6996508837    0.1280983632    3.5960810157
H        1.4637344277   -4.0373894131    4.3459662381
H       -0.2521866708   -4.0047993649   -0.6237726435
H        0.8228763100    0.1208022401   -0.0596039414
H       -0.2219611601   -3.3470554419    2.6343700344
H       -0.5106677274   -1.6130143334    2.3310378721
28   
Generated by ForceBalance from scan.xyz: Frame 3 of 24
C        2.3376568127   -1.0521581628    6.0729829982
C       -1.2775063150   -1.0143428410   -2.1391842427
C        1.5939170869   -0.1974945821    5.2523611357
C        2.3868176206   -2.4209074464    5.7877635433
C       -1.2974362056   -2.3889096478   -1.8773902471
C       -0.4411445960   -0.1659239193   -1.4039455443
C        0.9030177483   -0.7098181519    4.1524383403
C        1.6931580418   -2.9322994636    4.6890851605
C       -0.4867027563   -2.9220445054   -0.8710434928
C        0.3740601450   -0.6873605362   -0.3957686895
C        0.9428397304   -2.0808335195    3.8653844404
C        0.3332748173   -2.0600162520   -0.1400314369
C        0.2270887688   -2.6264036186    2.6696550858
O        1.5838079911   -4.1605965351    0.9154265573
O        2.4742549228   -1.7995270904    1.3872068714
S        1.3532586534   -2.7298568225    1.1852581219
H        2.8764027934   -0.6537929658    6.9287733556
H       -1.9076569437   -0.6044872058   -2.9240538011
H        1.5543761506    0.8668408220    5.4685902717
H        2.9663596660   -3.0885422273    6.4197333661
H       -1.9366717344   -3.0461702681   -2.4604127320
H       -0.4164948540    0.8983701243   -1.6214445569
H        0.3329038219   -0.0416590519    3.5107592521
H        1.7400571472   -3.9948446830    4.4622806286
H       -0.4685880327   -3.9881363697   -0.6653875302
H        1.0491262221   -0.0531704032    0.1708379945
H       -0.1290450238   -3.6491691107    2.8052362870
H       -0.6055624405   -1.9890659091    2.3644740267
28   
Generated by ForceBalance from scan.xyz: Frame 4 of 24
C        2.2713796372   -0.8137751905    5.8366987789
C       -1.1461146187   -0.7898355300   -2.0011991174
C        1.3576983585   -0.1291228340    5.0288327333
C        2.5156317592   -2.1735409960    5.6141533492
C       -1.3077199298   -2.1716190939   -1.8485279016
C       -0.2200352945   -0.0931497150   -1.2158304234
C        0.6920679784   -0.8039791135    4.0027978958
C        1.8477945681   -2.8451749579    4.5888593436
C       -0.5493007017   -2.8644860607   -0.9003852620
C        0.5452879525   -0.7749493470   -0.2658728655
C        0.9278555915   -2.1671057644    3.7765800042
C        0.3628292840   -2.1522699221   -0.1192966151
C        0.2370608130   -2.8787595625    2.6569083919
O        1.3377686848   -4.4524976011    0.7733251599
O        2.5599183231   -2.2741435551    1.3618355966
S        1.3152166534   -3.0235816388    1.1364536829
H        2.7907027529   -0.2908274770    6.6355042295
H       -1.7367536857   -0.2558038813   -2.7408151998
H        1.1639958535    0.9267930941    5.1985820097
H        3.2276470276   -2.7083242135    6.2370699590
H       -2.0169435143   -2.7103605025   -2.4708915002
H       -0.0870894159    0.9769879456   -1.3491561135
H       -0.0168627172   -0.2696022457    3.3737295611
H        2.0476928574   -3.8989920642    4.4098899518
H       -0.6417388747   -3.9392245925   -0.7765218124
H        1.2871537409   -0.2613028135    0.3382386140
H        0.0020584615   -3.9191572481    2.8917325484
H       -0.6724296219   -2.3696433874    2.3326120996
28   
Generated by ForceBalance from scan.xyz: Frame 5 of 24
C        2.1773581296   -0.6299514358    5.5575740619
C       -1.0163435640   -0.5900234701   -1.7878451218
C        1.1377791761   -0.1209352434    4.7727009792
C        2.5803023534   -1.9609761355    5.4000934685
C       -1.2902619043   -1.9625052454   -1.7697443315
C       -0.0331118802   -0.0526541434   -0.9487276236
C        0.5051461305   -0.9418966682    3.8356115295
C        1.9471674258   -2.7791347637    4.4633411046
C       -0.5892776163   -2.8066699545   -0.9035655047
C        0.6778691223   -0.8857936508   -0.0809309492
C        0.9007364821   -2.2779133750    3.6762451345
C        0.3824023876   -2.2515836918   -0.0691108655
C        0.2424254083   -3.1408185700    2.6472684698
O        1.0814229368   -4.7041422676    0.6394122104
O        2.5945230804   -2.7500333837    1.3262754049
S        1.2563479453   -3.3118207735    1.0927493302
H        2.6709877016    0.0060316229    6.2877743814
H       -1.5643752781    0.0609962166   -2.4638391001
H        0.8192594910    0.9113954880    4.8919041893
H        3.3908399702   -2.3592412387    6.0045186653
H       -2.0443588359   -2.3767389578   -2.4332987873
H        0.1860043978    1.0112365509   -0.9761644668
H       -0.3039602901   -0.5449133587    3.2260308575
H        2.2741512917   -3.8073895358    4.3315816567
H       -0.7718216887   -3.8766870473   -0.8805757909
H        1.4608601341   -0.4959429857    0.5625285868
H        0.1383030813   -4.1792926972    2.9724284107
H       -0.7336541308   -2.7686567152    2.3310916682
28   
Generated by ForceBalance from scan.xyz: Frame 6 of 24
C        2.0319434121   -0.4309711629    5.2838449606
C       -0.8617821756   -0.4204971837   -1.5117268022
C        0.8919078994   -0.1144754687    4.5383307402
C        2.5939944220   -1.7094518674    5.1885527402
C       -1.2826416391   -1.7548636361   -1.5608082177
C        0.2073540915   -0.0437963607   -0.6907716482
C        0.3166264432   -1.0750368341    3.7020675433
C        2.0189233295   -2.6676702222    4.3527253418
C       -0.6418355236   -2.7210153491   -0.7804102685
C        0.8598281366   -0.9996243331    0.0926065888
C        0.8719024000   -2.3596665171    3.6069048655
C        0.4185839019   -2.3243282570    0.0369755761
C        0.2723659943   -3.3703967832    2.6807512925
O        0.8838825862   -4.8771497026    0.5642884972
O        2.6091822570   -3.1364056678    1.3205564621
S        1.2142181852   -3.5414898993    1.0941349485
H        2.4808154581    0.3138433479    5.9358790585
H       -1.3635900194    0.3260974203   -2.1216243877
H        0.4505663014    0.8762721902    4.6090392598
H        3.4831646136   -1.9573237718    5.7620387571
H       -2.1039132992   -2.0442632083   -2.2106623180
H        0.5377762056    0.9909459573   -0.6650978958
H       -0.5688124367   -0.8272156884    3.1207965073
H        2.4698874451   -3.6521335020    4.2638121121
H       -0.9371450980   -3.7653805498   -0.8120888675
H        1.7029856895   -0.7350522535    0.7231029712
H        0.3113903374   -4.3866236531    3.0839489127
H       -0.7562929738   -3.1447878050    2.3935792379
28   
Generated by ForceBalance from scan.xyz: Frame 7 of 24
C        1.8615237267   -0.2721085021    4.9845331835
C       -0.6879505791   -0.2699163493   -1.2266762500
C        0.6493675115   -0.1501885713    4.2978838823
C        2.5683584845   -1.4796757896    4.9390241943
C       -1.2539662254   -1.5473148815   -1.3180032042
C        0.4609476323   -0.0570492124   -0.4564340435
C        0.1481487104   -1.2326269936    3.5698748107
C        2.0666166449   -2.5606283093    4.2123217348
C       -0.6774761978   -2.6191358805   -0.6312124329
C        1.0486630440   -1.1206294861    0.2335141047
C        0.8490727675   -2.4467434815    3.5251131993
C        0.4650791923   -2.3863724240    0.1375634559
C        0.3272062208   -3.5867842225    2.7063295231
O        0.7086356054   -5.0057254682    0.4828769547
O        2.6117985398   -3.4793707002    1.2744821108
S        1.1779276710   -3.7414127899    1.0776419301
H        2.2537123645    0.5677606921    5.5522104826
H       -1.1398076861    0.5600462651   -1.7635814303
H        0.0955328371    0.7844758031    4.3282427086
H        3.5130855141   -1.5771989884    5.4671998856
H       -2.1378272794   -1.7101427979   -1.9285911646
H        0.9017229262    0.9341007321   -0.3950947297
H       -0.7904359765   -1.1329864147    3.0296987450
H        2.6285867172   -3.4885650395    4.1589080213
H       -1.0858710611   -3.6228884663   -0.7001690538
H        1.9464888780   -0.9820982184    0.8271088634
H        0.5196137503   -4.5613417269    3.1654951836
H       -0.7372498144   -3.5094630859    2.4764388045
28   
Generated by ForceBalance from scan.xyz: Frame 8 of 24
C        1.6547342035   -0.1277055604    4.6746100687
C       -0.4922090864   -0.1379149194   -0.9433694048
C        0.3868929360   -0.2065732803    4.0895293764
C        2.5032680096   -1.2408415298    4.6476619205
C       -1.2087315246   -1.3371706619   -1.0358084615
C        0.7308041846   -0.0928289120   -0.2645241680
C       -0.0273721566   -1.3930529755    3.4792600811
C        2.0872562201   -2.4271819351    4.0400047170
C       -0.7074507834   -2.4985714843   -0.4417579597
C        1.2427255428   -1.2468393384    0.3332743252
C        0.8161688380   -2.5129002375    3.4526321485
C        0.5109276115   -2.4325717510    0.2377309257
C        0.3880965438   -3.7624694836    2.7450467001
O        0.5201902992   -5.0862947196    0.4304029379
O        2.5869091494   -3.7789960729    1.2052897838
S        1.1266477421   -3.9031085374    1.0648110495
H        1.9801001372    0.7943280257    5.1494295840
H       -0.8857332611    0.7626267462   -1.4075792652
H       -0.2763277837    0.6542292140    4.1041558922
H        3.4905720809   -1.1834066903    5.0982473675
H       -2.1509998550   -1.3700536837   -1.5758211120
H        1.2856876454    0.8389062666   -0.1993327737
H       -1.0072552084   -1.4461708156    3.0105874012
H        2.7556726643   -3.2822493414    3.9977535161
H       -1.2341209925   -3.4453327709   -0.5161191977
H        2.1900059785   -1.2374959564    0.8624215272
H        0.7365432467   -4.6754536827    3.2371179941
H       -0.6916994595   -3.8270690834    2.5967629067
28   
Generated by ForceBalance from scan.xyz: Frame 9 of 24
C        1.4205520182   -0.0259711869    4.3753555063
C       -0.2737047274   -0.0198992354   -0.6711408907
C        0.1245387483   -0.2981475348    3.9251020067
C        2.3960765406   -1.0287807529    4.3334413329
C       -1.1322486361   -1.1232983692   -0.7379591762
C        1.0063171839   -0.1504135139   -0.1201941946
C       -0.1915344563   -1.5654999327    3.4309528622
C        2.0787584895   -2.2967226222    3.8409813743
C       -0.7170737295   -2.3622189812   -0.2418107005
C        1.4326233922   -1.3833988979    0.3772713657
C        0.7815349707   -2.5737165445    3.3844411355
C        0.5589048991   -2.4707832200    0.3145639970
C        0.4606181297   -3.9056668489    2.7771860483
O        0.2983988674   -5.1239662852    0.3953198151
O        2.5315278447   -4.0639965650    1.0870291491
S        1.0589156261   -4.0378894695    1.0366324536
H        1.6688074648    0.9603899227    4.7585649153
H       -0.6008514158    0.9425888741   -1.0557467714
H       -0.6372464160    0.4763419998    3.9530813515
H        3.4043883990   -0.8223690568    4.6826030598
H       -2.1193282570   -1.0215953917   -1.1806538851
H        1.6714632295    0.7073513351   -0.0746638319
H       -1.1950116954   -1.7679455107    3.0642428269
H        2.8418827414   -3.0680900231    3.7844310012
H       -1.3589118937   -3.2364468336   -0.2970209011
H        2.4197804952   -1.5085078397    0.8090835866
H        0.9651126422   -4.7405275256    3.2712885299
H       -0.6118372044   -4.1047472792    2.7311452574
28   
Generated by ForceBalance from scan.xyz: Frame 10 of 24
C        1.2155240829    0.0365251459    4.1840937508
C       -0.0839341345    0.0557550042   -0.4945400581
C       -0.0632047633   -0.3917286031    3.8111956626
C        2.2864728977   -0.8629864554    4.1504959221
C       -1.0403242093   -0.9647959403   -0.5330884859
C        1.2146657525   -0.2079693445   -0.0433189372
C       -0.2672345543   -1.7101584033    3.4003313948
C        2.0805981892   -2.1812566136    3.7367543866
C       -0.7062047832   -2.2514178954   -0.1015393136
C        1.5613718494   -1.4909168056    0.3833599704
C        0.8030186679   -2.6147844739    3.3535618583
C        0.5893158123   -2.4929374532    0.3586355457
C        0.6081426123   -3.9990089303    2.8161220400
O        0.0549515548   -5.1039215103    0.4233079179
O        2.4481786571   -4.2971767749    0.8928742401
S        0.9876701189   -4.1225231549    1.0026937291
H        1.3753186879    1.0634375865    4.5021789498
H       -0.3483903562    1.0569489821   -0.8246191385
H       -0.8993007720    0.3019865128    3.8353345636
H        3.2812682261   -0.5373705438    4.4430667832
H       -2.0425146435   -0.7611033462   -0.9002100515
H        1.9569560625    0.5850075336   -0.0220221507
H       -1.2597292328   -2.0337944098    3.0966357725
H        2.9165806312   -2.8744893582    3.6881759327
H       -1.4283525369   -3.0618430462   -0.1296417132
H        2.5630983699   -1.7189294063    0.7303244063
H        1.2874064864   -4.7331807814    3.2554237029
H       -0.4226623590   -4.3457655371    2.9111372361
28   
Generated by ForceBalance from scan.xyz: Frame 11 of 24
C        1.0251712101    0.0598763088    4.1394458649
C        0.0857513336    0.0950282563   -0.4537553707
C       -0.2192381475   -0.4900309092    3.8117139385
C        2.1729281190   -0.7371259077    4.0826437147
C       -0.9630336010   -0.8303038701   -0.4284919474
C        1.3785440746   -0.2895034814   -0.0790183977
C       -0.3136655021   -1.8270752724    3.4231430457
C        2.0768551192   -2.0735325491    3.6875971665
C       -0.7270280939   -2.1415262478   -0.0072449623
C        1.6283317056   -1.5993080564    0.3334236695
C        0.8343935457   -2.6291167091    3.3496643216
C        0.5656119689   -2.5038884643    0.3740019515
C        0.7534569978   -4.0353402916    2.8427072204
O       -0.2715837331   -5.0209927750    0.5473428262
O        2.2469387825   -4.5255487238    0.6650528364
S        0.8507112636   -4.1712583827    0.9823996430
H        1.0983669304    1.1013658082    4.4412596438
H       -0.1021823695    1.1164227830   -0.7741927986
H       -1.1148294152    0.1238682228    3.8557107144
H        3.1415391345   -0.3180222428    4.3421488293
H       -1.9619812437   -0.5329806555   -0.7356478845
H        2.1922787672    0.4297070543   -0.1089818653
H       -1.2814288184   -2.2466986314    3.1593996573
H        2.9719310902   -2.6882094496    3.6277009766
H       -1.5221988658   -2.8802988273    0.0176678600
H        2.6256682954   -1.9209279831    0.6133811206
H        1.5862360351   -4.6570633056    3.1761487391
H       -0.1947375223   -4.5158313777    3.0914596436
28   
Generated by ForceBalance from scan.xyz: Frame 12 of 24
C        0.7455991586    0.0498991051    4.2180234000
C        0.3406669279    0.1200368596   -0.5237712506
C       -0.4415927136   -0.6610219205    4.0110076166
C        1.9769912911   -0.5772497618    4.0024301813
C       -0.8053862798   -0.6527868628   -0.3079608788
C        1.6117303436   -0.4220469261   -0.3019162963
C       -0.3965389596   -1.9896281437    3.5853743997
C        2.0195533730   -1.9056951893    3.5738578783
C       -0.6863708694   -1.9685089278    0.1456601709
C        1.7429236726   -1.7375474036    0.1472239736
C        0.8340938463   -2.6229807113    3.3589467000
C        0.5884320020   -2.4896951752    0.3706747458
C        0.8829596592   -4.0270149721    2.8424701438
O       -0.5238434462   -4.8706650671    0.7034212063
O        2.0330902868   -4.7081689183    0.5058677745
S        0.7447576031   -4.1732376000    0.9829683971
H        0.7109297517    1.0843444543    4.5494505958
H        0.2438349771    1.1444468645   -0.8736810909
H       -1.4012945739   -0.1798978329    4.1799867023
H        2.9027112301   -0.0320054029    4.1663745606
H       -1.7902222325   -0.2331603922   -0.4938687019
H        2.4998797686    0.1774037158   -0.4816619061
H       -1.3209078303   -2.5380482473    3.4190593286
H        2.9781967628   -2.3890999769    3.3998800914
H       -1.5593450168   -2.5924736202    0.3089611980
H        2.7195872591   -2.1834893383    0.3058940775
H        1.8293622907   -4.5229254717    3.0639254794
H        0.0498614859   -4.6349534385    3.2002439829
28   
Generated by ForceBalance from scan.xyz: Frame 13 of 24
C        0.7728195313   -3.5344642597    4.2319442688
C       -0.1733354613   -3.6382378220   -0.3596873273
C        2.0186801145   -2.9052437337    4.1442721338
C       -0.3856556567   -2.8340687181    3.8773320453
C        1.1609258173   -3.4178949593    0.0019563250
C       -1.0861614311   -2.5783789961   -0.3764592484
C        2.1050723291   -1.5864608877    3.6919236066
C       -0.2975662868   -1.5146006620    3.4314323124
C        1.5880644739   -2.1380496502    0.3592629379
C       -0.6724607534   -1.2948830854   -0.0105118259
C        0.9492390414   -0.8811759623    3.3269195109
C        0.6586568803   -1.0961955478    0.3585817231
C        1.0599659472    0.4998958109    2.7599382807
O        2.6011115510    0.6875462668    0.5685394078
O        0.1735372206    1.5166734906    0.4208524043
S        1.1703696370    0.5411848622    0.8959043817
H        0.7037368075   -4.5622426031    4.5784215337
H       -0.4996584909   -4.6371281337   -0.6371374161
H        2.9216299482   -3.4414034676    4.4242958220
H       -1.3566607483   -3.3172289783    3.9451322398
H        1.8690193919   -4.2418641309    0.0046404166
H       -2.1172408336   -2.7495558544   -0.6734663061
H        3.0756253183   -1.1031394084    3.6082323272
H       -1.1996135244   -0.9782239549    3.1471197769
H        2.6207590622   -1.9437392161    0.6281087569
H       -1.3594743929   -0.4542622694   -0.0192334143
H        0.1868839324    1.1155951713    2.9846392494
H        1.9706762886    1.0157240724    3.0693373038
28   
Generated by ForceBalance from scan.xyz: Frame 14 of 24
C        0.9643813884   -3.5351860994    4.2750153819
C       -0.3383139582   -3.5773479753   -0.3944743543
C        2.1443905030   -2.7866643651    4.2076765820
C       -0.2480320704   -2.9581482730    3.8818092954
C        0.9865879678   -3.4674632282    0.0436376552
C       -1.1539371989   -2.4432460184   -0.4744471281
C        2.1128691648   -1.4707224852    3.7401978789
C       -0.2784724534   -1.6421289957    3.4172046638
C        1.5010412633   -2.2245157538    0.4161473540
C       -0.6521001286   -1.1946180247   -0.0975605375
C        0.9018020911   -0.8896097472    3.3366367776
C        0.6671085250   -1.1066751098    0.3503604398
C        0.8897179268    0.4850118029    2.7424827635
O        2.7488885781    0.4571745209    0.8144396940
O        0.4821741865    1.5523912659    0.3033587058
S        1.2784192935    0.4817198880    0.9266089563
H        0.9886336179   -4.5604272455    4.6349466174
H       -0.7333976758   -4.5481630817   -0.6820445987
H        3.0884314282   -3.2283373443    4.5158018814
H       -1.1679629612   -3.5344051982    3.9320285579
H        1.6190102527   -4.3491929478    0.0969826657
H       -2.1765889496   -2.5294517246   -0.8313785598
H        3.0325486542   -0.8959078584    3.6653897034
H       -1.2206129982   -1.2032653643    3.0981093505
H        2.5260816503   -2.1150015365    0.7526626820
H       -1.2623160511   -0.2985060099   -0.1587305147
H       -0.0860747137    0.9683892374    2.8199348714
H        1.6612441125    1.1403898073    3.1530384417
28   
Generated by ForceBalance from scan.xyz: Frame 15 of 24
C        1.1763074845   -3.4943707991    4.4652650651
C       -0.5153699677   -3.4830275991   -0.5826272055
C        2.2797096875   -2.6371233794    4.3836125778
C       -0.0717333238   -3.0671736261    4.0001330716
C        0.7722632763   -3.5050690541   -0.0344015957
C       -1.2159388889   -2.2768500785   -0.6983390804
C        2.1368349403   -1.3599375763    3.8365767378
C       -0.2132878326   -1.7907557329    3.4515249885
C        1.3645356534   -2.3220622152    0.4117643450
C       -0.6345571649   -1.0860878385   -0.2540049600
C        0.8883127820   -0.9279499438    3.3647853903
C        0.6460875401   -1.1299101924    0.3005879403
C        0.7506511796    0.4082207059    2.7001885511
O        2.8195055607    0.2111323254    1.0111524435
O        0.7495129305    1.5343653594    0.2676936418
S        1.3568912683    0.3834680125    0.9574114605
H        1.2885474926   -4.4881842449    4.8908471900
H       -0.9717790394   -4.4073613801   -0.9270522479
H        3.2514063817   -2.9642646913    4.7441826835
H       -0.9320664540   -3.7284610082    4.0589382044
H        1.3143735421   -4.4428321885    0.0489671291
H       -2.2090647009   -2.2618691253   -1.1389184836
H        2.9979737530   -0.7031416368    3.7493777875
H       -1.1807943975   -1.4689216218    3.0736592882
H        2.3609222806   -2.3143591232    0.8404348685
H       -1.1513795965   -0.1355897209   -0.3476872440
H       -0.2846409533    0.7499092576    2.6423952629
H        1.3658792391    1.1863879253    3.1601497022
28   
Generated by ForceBalance from scan.xyz: Frame 16 of 24
C        1.4236091531   -3.4122018191    4.7598509530
C       -0.7171494230   -3.3486618222   -0.8605094255
C        2.4164423567   -2.4277835247    4.6892050720
C        0.1768152128   -3.1866057370    4.1677048375
C        0.4900837422   -3.5312749416   -0.1765249327
C       -1.2633509096   -2.0677324146   -1.0056637032
C        2.1637342613   -1.2229666134    4.0302469365
C       -0.0737388041   -1.9818638048    3.5062258350
C        1.1559666879   -2.4333580710    0.3733909319
C       -0.6067891469   -0.9613741125   -0.4597923754
C        0.9147840941   -0.9898295156    3.4353810682
C        0.5930203000   -1.1637519505    0.2257473898
C        0.6594898261    0.2753802764    2.6741880795
O        2.8358429374   -0.0738610281    1.1421443519
O        0.9653264191    1.4698046753    0.3061406899
S        1.4059131726    0.2426606910    0.9918783355
H        1.6212589428   -4.3490258231    5.2743739147
H       -1.2311464039   -4.2058967005   -1.2874616637
H        3.3877812954   -2.6000529853    5.1452228438
H       -0.5973128939   -3.9477856074    4.2166294313
H        0.9129547980   -4.5263366366   -0.0701419827
H       -2.1937723958   -1.9294517810   -1.5494984140
H        2.9421579782   -0.4693567840    3.9540056862
H       -1.0383414890   -1.8156472400    3.0323294850
H        2.0944894083   -2.5494885460    0.9054655200
H       -0.9996664556    0.0443168222   -0.5759117695
H       -0.4017947720    0.4801972289    2.5198212218
H        1.1303743759    1.1523997968    3.1283013167
28   
Generated by ForceBalance from scan.xyz: Frame 17 of 24
C        1.6463131612   -3.2877337583    5.0642280387
C       -0.8917371552   -3.2053358457   -1.1491733517
C        2.5131849824   -2.1926875035    4.9672849343
C        0.4256245595   -3.2699580626    4.3821728301
C        0.2189786074   -3.5400386737   -0.3663780667
C       -1.2781497625   -1.8675907516   -1.2962656238
C        2.1631674175   -1.0844239367    4.1942836625
C        0.0761587093   -2.1604477970    3.6077227880
C        0.9467467183   -2.5370966336    0.2794947758
C       -0.5601492959   -0.8554486942   -0.6536553057
C        0.9381302827   -1.0581340529    3.5114395514
C        0.5416912952   -1.2085626430    0.1285079462
C        0.5748432182    0.1068776141    2.6436208739
O        2.8205391333   -0.3708753991    1.2256170546
O        1.1407947759    1.3651287180    0.3636132862
S        1.4351248966    0.0751125105    1.0129177092
H        1.9212982377   -4.1486957519    5.6680360776
H       -1.4537317971   -3.9878795548   -1.6522329003
H        3.4648346579   -2.2046445172    5.4918728267
H       -0.2522560565   -4.1166305891    4.4520316766
H        0.5210072162   -4.5783898201   -0.2612154094
H       -2.1328421887   -1.6120802830   -1.9165373592
H        2.8480614650   -0.2465367062    4.1016590287
H       -0.8696939803   -2.1520316919    3.0711200482
H        1.8185198562   -2.7711459373    0.8818122712
H       -0.8284541160    0.1906374854   -0.7668309199
H       -0.4906743355    0.1657557098    2.4130869300
H        0.8991495491    1.0645122338    3.0623971686
28   
Generated by ForceBalance from scan.xyz: Frame 18 of 24
C        1.8431360007   -3.1254413585    5.3635787421
C       -1.0411714217   -3.0383525829   -1.4369250932
C        2.5707413527   -1.9377976273    5.2241630715
C        0.6760781545   -3.3173916314    4.6173306591
C       -0.0308723132   -3.5245209339   -0.5991936683
C       -1.2721547057   -1.6616416991   -1.5437800585
C        2.1344703287   -0.9463533916    4.3441620620
C        0.2398050667   -2.3236942447    3.7369712063
C        0.7515784300   -2.6355358325    0.1428397157
C       -0.4992196127   -0.7616655967   -0.8050040130
C        0.9618416033   -1.1291405521    3.5971749304
C        0.4996599779   -1.2656890412    0.0305314862
C        0.5098137997   -0.0870831663    2.6232744310
O        2.7860103393   -0.7156707119    1.2864645461
O        1.3254121214    1.2162398583    0.4415493158
S        1.4628009066   -0.1267644774    1.0343496899
H        2.1843856742   -3.8960220001    6.0499797904
H       -1.6449144565   -3.7332014763   -2.0147417147
H        3.4810634634   -1.7869953747    5.7981829114
H        0.1059573171   -4.2368508138    4.7218432753
H        0.1527343466   -4.5930865259   -0.5284108470
H       -2.0481403665   -1.2886753153   -2.2065762407
H        2.7133787535   -0.0350429106    4.2219196138
H       -0.6671073978   -2.4749983635    3.1556897825
H        1.5527142808   -2.9876345711    0.7851788623
H       -0.6464455178    0.3112506770   -0.8826898583
H       -0.5414193564   -0.1752003974    2.3429316120
H        0.6965646547    0.9304136279    2.9790437794
28   
Generated by ForceBalance from scan.xyz: Frame 19 of 24
C        1.9988247002   -2.9653639401    5.6469954709
C       -1.1751039402   -2.8541773753   -1.7035312128
C        2.5825278496   -1.7100448472    5.4414369933
C        0.9004323958   -3.3561150262    4.8745191691
C       -0.2589410807   -3.4891008577   -0.8568629621
C       -1.2700075965   -1.4577920822   -1.7253576897
C        2.0708366675   -0.8493774624    4.4692521122
C        0.3891720220   -2.4931442292    3.9018168322
C        0.5642596729   -2.7302578752   -0.0205086039
C       -0.4550549554   -0.6866752837   -0.8916370243
C        0.9666065300   -1.2320215939    3.6946098889
C        0.4472834302   -1.3381786330   -0.0487421442
C        0.4363731340   -0.3273357580    2.6283503550
O        2.7084699065   -1.1016047051    1.3368173886
O        1.4873844115    1.0174947357    0.5629091444
S        1.4634848890   -0.3657734502    1.0735395754
H        2.3981094164   -3.6344080252    6.4048187875
H       -1.8107804097   -3.4485465051   -2.3545091475
H        3.4391582754   -1.4043933603    6.0361399545
H        0.4420258186   -4.3291243598    5.0309482136
H       -0.1792194226   -4.5727271870   -0.8536456188
H       -1.9726433824   -0.9692467052   -2.3948267039
H        2.5371781798    0.1179153838    4.3004241224
H       -0.4656317801   -2.7980572019    3.3016449643
H        1.2976817596   -3.1985549558    0.6290033729
H       -0.4970675557    0.3982214620   -0.9011968608
H       -0.5825762828   -0.5703987664    2.3219699215
H        0.4802940418    0.7277507910    2.9109016994
28   
Generated by ForceBalance from scan.xyz: Frame 20 of 24
C        2.1390180124   -2.7587901783    5.8907253482
C       -1.2879976830   -2.6505531243   -1.9422671197
C        2.5602176150   -1.4537297174    5.6121630828
C        1.1385440697   -3.3479004847    5.1108789019
C       -0.4750809657   -3.4320892168   -1.1126076603
C       -1.2468380578   -1.2540432260   -1.8609380707
C        1.9830314233   -0.7410531789    4.5599159917
C        0.5632829815   -2.6333335989    4.0574506772
C        0.3786528881   -2.8202406298   -0.1909018251
C       -0.3988855527   -0.6295461339   -0.9414445817
C        0.9773483945   -1.3240768438    3.7759502307
C        0.3978024014   -1.4252022510   -0.1160887600
C        0.3823744524   -0.5734959177    2.6271612308
O        2.5972733032   -1.5374050738    1.3614223305
O        1.6760667995    0.7587771740    0.6802178215
S        1.4634555938   -0.6376691173    1.1033094065
H        2.5882300281   -3.3130533696    6.7106564653
H       -1.9478492862   -3.1307793891   -2.6599609971
H        3.3400053967   -0.9934512665    6.2130150648
H        0.8070772491   -4.3608630733    5.3237261841
H       -0.4986321310   -4.5156502087   -1.1898274965
H       -1.8684834679   -0.6510713556   -2.5170817042
H        2.3203284938    0.2686284595    4.3378323642
H       -0.2134564707   -3.0939307732    3.4504725824
H        1.0367993349   -3.4044785496    0.4452925658
H       -0.3351157924    0.4521507632   -0.8723766590
H       -0.5880622026   -0.9704658232    2.3235353805
H        0.2889208099    0.4978246862    2.8177194189
28   
Generated by ForceBalance from scan.xyz: Frame 21 of 24
C        2.2482213647   -2.5164470887    6.0822621328
C       -1.3634649643   -2.4250635337   -2.1280403942
C        2.4870439243   -1.1829106080    5.7331411790
C        1.3863063233   -3.2961331678    5.3036380378
C       -0.6588124531   -3.3456994153   -1.3431248504
C       -1.1867976248   -1.0499933315   -1.9379872632
C        1.8640398787   -0.6314539969    4.6117353743
C        0.7665875620   -2.7434706787    4.1810416695
C        0.2215781470   -2.8951436022   -0.3560455312
C       -0.3095919717   -0.5863915114   -0.9531177077
C        0.9959273756   -1.4064582831    3.8294515758
C        0.3767188255   -1.5189027122   -0.1727657387
C        0.3555498617   -0.8226948710    2.6090915190
O        2.4687574299   -1.9957043075    1.3697315630
O        1.8985421662    0.4401643908    0.7941222023
S        1.4807392660   -0.9340863491    1.1249609110
H        2.7319948405   -2.9460678606    6.9555798537
H       -2.0448815411   -2.7808186367   -2.8962769987
H        3.1589183761   -0.5744571942    6.3326260428
H        1.1995043181   -4.3331056706    5.5700142141
H       -0.7872128811   -4.4123327546   -1.5057051543
H       -1.7244557234   -0.3394689082   -2.5597626286
H        2.0578256550    0.4022298084    4.3349979229
H        0.1036119676   -3.3540957926    3.5720883792
H        0.7986679227   -3.5890240806    0.2477776844
H       -0.1392630454    0.4752426557   -0.8011668077
H       -0.5559780846   -1.3556303560    2.3303851217
H        0.1398053460    0.2434761210    2.6991829983
28   
Generated by ForceBalance from scan.xyz: Frame 22 of 24
C        2.3426108408   -2.2757020713    6.1852470256
C       -1.4183915102   -2.1918705971   -2.2903423933
C        2.3901238709   -0.9447807358    5.7575775462
C        1.6355462879   -3.2229132059    5.4364201731
C       -0.8287895137   -3.2362915413   -1.5681193377
C       -1.1099191818   -0.8607985149   -1.9884012416
C        1.7284680651   -0.5627547306    4.5881501935
C        0.9776880520   -2.8392685383    4.2664897530
C        0.0665989839   -2.9540594547   -0.5332064130
C       -0.2153882314   -0.5655157275   -0.9555121913
C        1.0116757043   -1.5055298379    3.8372140838
C        0.3544938572   -1.6194116441   -0.2380809975
C        0.3291161793   -1.0981063107    2.5674535072
O        2.3175390801   -2.4399930351    1.3275723013
O        2.0764902940    0.0773210889    0.8862018526
S        1.4791218259   -1.2490954369    1.1192777617
H        2.8557698223   -2.5740928423    7.0957419920
H       -2.1121811871   -2.4165619401   -3.0961092044
H        2.9426161661   -0.2063791094    6.3325365219
H        1.6013255490   -4.2593120544    5.7617025868
H       -1.0585423658   -4.2688408547   -1.8163973378
H       -1.5580392620   -0.0536068525   -2.5611976667
H        1.7749936985    0.4692348087    4.2491608943
H        0.4429366803   -3.5798704509    3.6770324388
H        0.5555137054   -3.7470091489    0.0245185484
H        0.0574121114    0.4589904077   -0.7201889045
H       -0.5198342531   -1.7447809198    2.3341931587
H        0.0056356451   -0.0555518002    2.5635291359
28   
Generated by ForceBalance from scan.xyz: Frame 23 of 24
C        2.4144236946   -2.0391751873    6.2465463390
C       -1.4265816620   -1.9546646150   -2.3863350323
C        2.2909110575   -0.7486415929    5.7211600190
C        1.8398082288   -3.1238431275    5.5748979040
C       -0.9606926119   -3.0995667940   -1.7290748195
C       -1.0021315949   -0.6843372686   -1.9808620939
C        1.5896645094   -0.5437127302    4.5306439098
C        1.1405119096   -2.9184461759    4.3840355543
C       -0.0734442007   -2.9796481736   -0.6563079007
C       -0.1147915249   -0.5512900633   -0.9090462596
C        1.0025715950   -1.6258810393    3.8591526351
C        0.3317142373   -1.7034160745   -0.2580211065
C        0.2778118183   -1.4069946146    2.5653930613
O        2.1772298835   -2.8101144999    1.2837584354
O        2.1611527243   -0.2555291168    1.0304283931
S        1.4482011248   -1.5390969691    1.1449454551
H        2.9592225870   -2.1997403005    7.1732726879
H       -2.1143827222   -2.0536009069   -3.2219476167
H        2.7420968294    0.0956641524    6.2355942960
H        1.9411972773   -4.1288375965    5.9758714409
H       -1.2805826696   -4.0847558982   -2.0571115412
H       -1.3543216695    0.2009790274   -2.5030238950
H        1.5063127553    0.4561837851    4.1126302014
H        0.7113281744   -3.7635092900    3.8522201836
H        0.3214922205   -3.8541856528   -0.1481422386
H        0.2475633466    0.4224977532   -0.5932322619
H       -0.4853944243   -2.1678808447    2.3852043769
H       -0.1685378314   -0.4138671144    2.4831805830
28   
Generated by ForceBalance from scan.xyz: Frame 24 of 24
C        2.4489809212   -1.8086522980    6.2625629657
C       -1.4256308738   -1.7227553507   -2.4203882814
C        2.1753360120   -0.5889731226    5.6341956371
C        2.0032150013   -3.0037961976    5.6879218772
C       -1.0685683120   -2.9531967797   -1.8568190521
C       -0.9004763598   -0.5306446830   -1.9083776510
C        1.4540328141   -0.5642537832    4.4385564224
C        1.2820140617   -2.9783298297    4.4922281573
C       -0.1895585305   -2.9971751138   -0.7712653332
C       -0.0206127512   -0.5618319094   -0.8230478109
C        0.9939453643   -1.7580136416    3.8645501135
C        0.3171812483   -1.7974918174   -0.2661049202
C        0.2455483940   -1.7335631136    2.5654903505
O        2.0539851159   -3.1731664668    1.2006231518
O        2.2297239615   -0.6127744351    1.1468886247
S        1.4225286424   -1.8439951355    1.1538285006
H        3.0100545412   -1.8279561934    7.1933006668
H       -2.1073270359   -1.6934766329   -3.2662778905
H        2.5270614480    0.3411374033    6.0726516593
H        2.2207664660   -3.9541526862    6.1680902236
H       -1.4667252938   -3.8772214261   -2.2668867922
H       -1.1686045460    0.4211823568   -2.3585189386
H        1.2575382813    0.3814217168    3.9404870659
H        0.9517887697   -3.9076035573    4.0357112341
H        0.1218367282   -3.9411246819   -0.3340487493
H        0.4191725478    0.3479090432   -0.4253551291
H       -0.4297211833   -2.5844554721    2.4500128428
H       -0.3071102850   -0.8036482509    2.4131834519
