29

C      1.07174    2.22339    0.21777
C     -0.23520    1.86311   -0.13366
C      1.49637    2.13908    1.55111
C     -1.13381    1.41450    0.84428
C      0.60080    1.69201    2.52203
C     -0.71088    1.33131    2.17051
C     -0.45086   -0.52195    6.05011
C      0.81969    1.49757    4.00508
C     -1.47718    0.86873    3.38838
C      0.10090   -2.65312    5.92522
C     -0.03832   -2.25884    7.41857
C     -0.63346    1.44985    4.55192
N     -0.07767   -1.39594    5.18656
N     -0.82214    0.77255    5.83244
O     -0.53839   -0.89552    7.37294
H      1.75897    2.57462   -0.54802
H     -0.55516    1.93674   -1.17016
H      2.51144    2.42303    1.82119
H     -2.14970    1.13936    0.56851
H      1.31371    0.53887    4.19637
H      1.41501    2.29047    4.47003
H     -2.51417    1.21748    3.41740
H     -1.47996   -0.22424    3.44833
H      1.07968   -3.09282    5.70745
H     -0.66201   -3.38088    5.62118
H     -0.75753   -2.86149    7.97725
H      0.91837   -2.24801    7.95026
H     -0.96466    2.48015    4.71666
H     -0.82616    1.34513    6.66554
