30

C      1.32746    1.79607   -0.47288
C      0.05765    1.26807   -0.20568
C      1.46499    3.05313   -1.07524
C     -1.09741    1.98816   -0.53641
C      0.31380    3.76686   -1.40295
C     -0.95677    3.23877   -1.13529
C     -2.87826    6.83805   -3.32533
C      0.19778    5.14004   -2.02909
C     -2.03488    4.21481   -1.55887
C     -4.84877    6.75410   -4.52930
C     -4.41952    8.21069   -4.26927
C     -1.26056    5.13487   -2.53734
N     -3.64822    6.03445   -4.06523
N     -1.79872    6.50569   -2.64928
O     -3.29075    8.09500   -3.32847
H      2.21325    1.22278   -0.21486
H     -0.03146    0.28973    0.25781
H      2.45259    3.45653   -1.28436
H     -2.08062    1.57258   -0.32957
H      0.33390    5.92176   -1.26679
H      0.91668    5.33019   -2.83029
H     -2.90234    3.72838   -2.01866
H     -2.39970    4.79952   -0.70406
H     -5.72296    6.45952   -3.94232
H     -5.03416    6.55968   -5.58641
H     -4.03751    8.71017   -5.16036
H     -5.17832    8.82088   -3.78377
H     -1.26953    4.69693   -3.54128
H     -3.57550    5.02476   -4.04041
H     -1.33573    7.26053   -2.15091
