30   
Generated by ForceBalance from scan.xyz: Frame 1 of 11
C       -2.6339557523    3.4439748392    3.0062563203
C       -2.5146053728    3.0488411038    1.6727144103
C       -2.1658072964    2.6053869625    4.0215311373
C       -1.9599863788    1.8019987492    1.3730874395
C       -1.5202063927    1.3944810919    3.7375727588
C       -1.4041482138    1.0075915427    2.3851982808
C       -1.1691515933   -1.4268537754    2.2296710967
C        0.1901364553   -0.0350308824    0.8164875454
C       -0.0908346661   -2.4984703374    2.3256138819
C        1.3438281690   -1.0311475393    0.8539639876
C       -0.9253626334    0.5695309691    4.8539517895
N       -0.5534591227   -0.1138458856    2.0630545270
N        0.7859479999   -2.4264696046    1.0858347596
H       -3.0791300946    4.4024903958    3.2566286496
H       -2.8868358937    3.6828604291    0.8732774399
H       -2.2563772999    2.9201109139    5.0581595322
H       -1.8812934514    1.4964708780    0.3332435430
H       -1.8700006819   -1.6675479283    1.4077411193
H       -1.7469763641   -1.4506205856    3.1543063181
H        0.6120082080    0.9661599311    0.7055121805
H       -0.4274965443   -0.2323323995   -0.0800144147
H        0.5653772207   -2.3193102461    3.1787533747
H       -0.5038933622   -3.5080380810    2.3759722703
H        1.9038566167   -1.0554610528   -0.0832582803
H        2.0164664084   -0.8239953129    1.6875933224
H       -1.5674699634   -0.2786116535    5.1238477549
H        0.0525552296    0.1688362291    4.5687533164
H       -0.7987753245    1.1700381923    5.7572962305
H        0.2256166037   -2.6981739848    0.2684160161
H        1.5511581565   -3.1067267122    1.1534503243
30   
Generated by ForceBalance from scan.xyz: Frame 2 of 11
C       -2.4566454151    3.5431877055    2.9510160307
C       -2.4294581635    3.1038834760    1.6253117613
C       -2.0974944616    2.6653134743    3.9789981920
C       -2.0970395122    1.7730738867    1.3618028935
C       -1.5942090603    1.3845218591    3.7107120889
C       -1.5507548548    0.9571779400    2.3635527560
C       -1.1695800943   -1.4700232995    2.2208594212
C        0.0805575831   -0.0043188093    0.7817616119
C       -0.0231931770   -2.4688605930    2.3134524631
C        1.2966474409   -0.9235082702    0.8165630696
C       -1.0290485323    0.5443721694    4.8306160098
N       -0.6425364926   -0.1192362731    2.0387990642
N        0.8340241378   -2.3505622385    1.0638963882
H       -2.7450660574    4.5635084527    3.1865348219
H       -2.7398593315    3.7581636339    0.8160627380
H       -2.1283486134    3.0106522995    5.0092830617
H       -2.0877685164    1.4360183008    0.3278792546
H       -1.8610780009   -1.7636314587    1.4085814682
H       -1.7349936959   -1.5237839785    3.1518951707
H        0.4358249331    1.0208111303    0.6583009294
H       -0.5320981417   -0.2487333411   -0.1060939400
H        0.6291228875   -2.2408620737    3.1579389436
H       -0.3696326322   -3.5024667733    2.3764782958
H        1.8489815280   -0.9179401798   -0.1254897270
H        1.9613917406   -0.6659410070    1.6424794749
H       -1.6922614467   -0.2892739562    5.0930231735
H       -0.0577186583    0.1222114596    4.5509869977
H       -0.8924916134    1.1394724155    5.7358220690
H        0.2842634702   -2.6646917707    0.2545542299
H        1.6427148370   -2.9788782846    1.1282254039
30   
Generated by ForceBalance from scan.xyz: Frame 3 of 11
C       -2.2789375442    3.6102804539    2.8965894407
C       -2.3504970227    3.1233791663    1.5875082348
C       -2.0320572593    2.7221460469    3.9498699774
C       -2.2448006005    1.7457721318    1.3874522720
C       -1.6805672647    1.3841447252    3.7159179893
C       -1.7122945427    0.9067673906    2.3817776648
C       -1.1936951453   -1.5057382649    2.2462165670
C       -0.0407208687    0.0253959927    0.7932260781
C        0.0110865174   -2.4333432646    2.3390704879
C        1.2280319221   -0.8198083957    0.8288578198
C       -1.1479970389    0.5383108914    4.8472012055
N       -0.7493307137   -0.1248231862    2.0562324830
N        0.8537324674   -2.2709828761    1.0848512259
H       -2.4037179517    4.6699272756    3.0998965241
H       -2.6006009693    3.7784437656    0.7583792541
H       -1.9981808347    3.1011822814    4.9681203408
H       -2.3058404954    1.3765723082    0.3649561945
H       -1.8690602603   -1.8456969211    1.4387428638
H       -1.7507757491   -1.5877939586    3.1803169393
H        0.2528156241    1.0688451192    0.6630666552
H       -0.6415926472   -0.2595850256   -0.0901177847
H        0.6526362960   -2.1614256790    3.1788556170
H       -0.2722459240   -3.4854632844    2.4102526103
H        1.7758473827   -0.7852638534   -0.1152033358
H        1.8788129553   -0.5183152822    1.6510493377
H       -1.8287977594   -0.2831037788    5.1010707808
H       -0.1796275927    0.0987169957    4.5812967111
H       -1.0105771011    1.1329697192    5.7524130804
H        0.3202546713   -2.6218707678    0.2797398112
H        1.6991516487   -2.8490464486    1.1484270640
30   
Generated by ForceBalance from scan.xyz: Frame 4 of 11
C       -2.0595485336    3.5904428094    2.8475009502
C       -2.2327595007    3.0677276003    1.5588389860
C       -1.9334557512    2.7107600417    3.9295817440
C       -2.3553290332    1.6834180312    1.4340112542
C       -1.7385382505    1.3334835471    3.7365472297
C       -1.8302784919    0.8165178091    2.4163927781
C       -1.1803054273   -1.5727052597    2.2516143894
C       -0.1207918100    0.0371687416    0.8102783360
C        0.0775183026   -2.4281828681    2.3362157367
C        1.1953861146   -0.7325388480    0.8414233341
C       -1.2471269672    0.4788503199    4.8799105619
N       -0.8187400561   -0.1651261321    2.0730609519
N        0.9076734898   -2.2056936317    1.0831225952
H       -2.0178370509    4.6631483172    3.0123806974
H       -2.4248516460    3.7150557801    0.7083847014
H       -1.8396817767    3.1137970885    4.9348562058
H       -2.4823275338    1.2815721459    0.4280202867
H       -1.8351967106   -1.9467375647    1.4425581506
H       -1.7296786898   -1.6937581339    3.1861622231
H        0.1114114333    1.0965863292    0.6889349912
H       -0.7038172847   -0.2754230763   -0.0753100682
H        0.7029055022   -2.1257002148    3.1777983584
H       -0.1430483014   -3.4957335886    2.3992334042
H        1.7417250073   -0.6561866821   -0.1010285678
H        1.8255872320   -0.4006703079    1.6679576277
H       -1.9459588225   -0.3320539584    5.1153814256
H       -0.2792777550    0.0245059858    4.6338734782
H       -1.1170714482    1.0692888077    5.7890145865
H        0.3945866827   -2.5794394139    0.2750375126
H        1.7855898171   -2.7338293013    1.1405930324
30   
Generated by ForceBalance from scan.xyz: Frame 5 of 11
C       -1.8664737330    3.5608276567    2.7734991292
C       -2.1628539860    3.0086728177    1.5152862161
C       -1.8290427790    2.7171741115    3.8920448328
C       -2.4869150221    1.6531457994    1.4908218448
C       -1.7866524204    1.3181222585    3.7527299439
C       -1.9557618159    0.7577384790    2.4521563272
C       -1.1947725603   -1.6033194615    2.2502891503
C       -0.1925370085    0.0842385383    0.8565676125
C        0.0979961931   -2.4058073648    2.3270924130
C        1.1542815502   -0.6298500349    0.8838178732
C       -1.3211512253    0.4698831987    4.9113258477
N       -0.8910647035   -0.1758943813    2.1108871218
N        0.9283696976   -2.1194984879    1.0874274342
H       -1.6684460475    4.6226962440    2.8875492137
H       -2.3293408861    3.6346338303    0.6438687327
H       -1.6581229737    3.1464504844    4.8761571200
H       -2.7030000473    1.2261566617    0.5080354951
H       -1.8261898217   -1.9858411573    1.4269347606
H       -1.7456307093   -1.7681614890    3.1776169142
H       -0.0034790054    1.1544125110    0.7613596001
H       -0.7560828535   -0.2319303044   -0.0398183626
H        0.7029771422   -2.0957817590    3.1808442377
H       -0.0769876439   -3.4829113177    2.3651559982
H        1.7057641122   -0.5068917372   -0.0506637870
H        1.7617976805   -0.2915504386    1.7246562233
H       -2.0434521599   -0.3163960078    5.1566248460
H       -0.3666776391   -0.0165375803    4.6722446634
H       -1.1717115188    1.0706293030    5.8107696510
H        0.4387155413   -2.4954106678    0.2659593542
H        1.8276728561   -2.6107757835    1.1411231302
30   
Generated by ForceBalance from scan.xyz: Frame 6 of 11
C       -3.2527557777    2.3669110032    3.0651115344
C       -2.8763513891    2.3010348856    1.7029691951
C       -2.2796347560    2.1981791807    4.0483030537
C       -1.5264697264    2.1537174540    1.4277680027
C       -1.0055988526    1.6779678785    3.7225865085
C       -0.6602045220    1.5088463436    2.3609039182
C       -1.2843650046   -0.7898256185    1.9849516161
C        0.7995404086   -0.0197430753    1.0539400235
C       -0.7553172719   -2.2097647862    2.1343870468
C        1.4231448055   -1.4075782068    1.1440347785
C       -0.1478050946    1.1063251439    4.8292765306
N       -0.1801797149    0.1540245225    2.1216494231
N        0.3174924361   -2.4491847285    1.0837157761
H       -4.2835878958    2.5640263717    3.3458014565
H       -3.5785604203    2.5530771757    0.9137633223
H       -2.5478760008    2.3123381539    5.0962344100
H       -1.2390210657    2.1061377635    0.3746253220
H       -1.8194956639   -0.6828365121    1.0233679548
H       -2.0158969874   -0.6129660924    2.7762552788
H        1.5983497380    0.7152108413    1.1760940410
H        0.3729132386    0.1250457528    0.0427975868
H       -0.2758803910   -2.3529573783    3.1038758611
H       -1.5331230264   -2.9615856851    1.9850169112
H        2.1122584734   -1.6146214439    0.3225168818
H        1.9278812049   -1.5504491016    2.1008637315
H       -0.5609296891    0.1694414382    5.2234056922
H        0.8708019923    0.9099369280    4.4913583385
H       -0.1031952989    1.8095485598    5.6670698956
H       -0.1185392782   -2.4153818701    0.1538976576
H        0.7119643351   -3.3907276524    1.1871235660
30   
Generated by ForceBalance from scan.xyz: Frame 7 of 11
C       -3.2264577129    2.5995218504    3.0669434764
C       -2.8799517772    2.4383936982    1.7111808368
C       -2.2832822355    2.3148082093    4.0535888387
C       -1.5745698360    2.0713235897    1.4110685419
C       -1.0789086635    1.6525981859    3.7382869097
C       -0.7657148274    1.4259594239    2.3816140962
C       -1.2763446445   -0.9012669238    2.0389151498
C        0.7260764855   -0.0184874335    1.0319059293
C       -0.6684831363   -2.2923102438    2.1592919210
C        1.4280411480   -1.3694466065    1.0988259332
C       -0.2548351858    1.0410562675    4.8491213983
N       -0.2210264271    0.1015333656    2.1336130567
N        0.3795094352   -2.4700225334    1.0718837065
H       -4.2158778994    2.9517138776    3.3445086771
H       -3.5614414438    2.7397143476    0.9209502339
H       -2.5292541511    2.4881726800    5.0987154616
H       -1.3119617174    1.9409172051    0.3602941346
H       -1.8565095471   -0.8179697702    1.1007992343
H       -1.9817543657   -0.7659894014    2.8613812258
H        1.4864870702    0.7605092444    1.1228572790
H        0.2556090860    0.0982022864    0.0365875465
H       -0.1492864463   -2.4146651951    3.1110134428
H       -1.4101212727   -3.0835809283    2.0315382001
H        2.0999551082   -1.5374873979    0.2544856062
H        1.9708618287   -1.4849333695    2.0382901018
H       -0.6735918957    0.0834479902    5.1842283587
H        0.7754564785    0.8617359837    4.5369208275
H       -0.2426907800    1.7036091712    5.7194872217
H       -0.0884163114   -2.4592723238    0.1571306751
H        0.8284375422   -3.3885038972    1.1592733563
30   
Generated by ForceBalance from scan.xyz: Frame 8 of 11
C       -3.1671808188    2.8116675021    3.0522928619
C       -2.8555596121    2.5803493814    1.7033531818
C       -2.2793150802    2.3970927086    4.0454514829
C       -1.6325045837    1.9941937189    1.3907331323
C       -1.1611717417    1.6004339492    3.7387165696
C       -0.8813508818    1.3308735562    2.3847552908
C       -1.2654621618   -1.0280194259    2.0803293938
C        0.6338182803   -0.0300014043    0.9865822209
C       -0.5682576422   -2.3780323299    2.1835811294
C        1.4241710914   -1.3317369719    1.0387268145
C       -0.3762795610    0.9400108031    4.8493517438
N       -0.2735440852    0.0401632166    2.1232512524
N        0.4486259258   -2.4977438938    1.0593208540
H       -4.0905181383    3.3153723978    3.3235864843
H       -3.5016928308    2.9507923106    0.9127377719
H       -2.5004885550    2.6132437804    5.0879346339
H       -1.3997275432    1.8073571796    0.3431813865
H       -1.8883906039   -0.9878365397    1.1665768191
H       -1.9433481596   -0.9311930844    2.9306395623
H        1.3441615346    0.7983956347    1.0378990282
H        0.1185249745    0.0413322110    0.0093044345
H       -0.0078766674   -2.4606996306    3.1160383012
H       -1.2626866337   -3.2152252484    2.0871825693
H        2.0735647178   -1.4645825344    0.1708263262
H        2.0077212187   -1.4021067389    1.9579650919
H       -0.7830526291   -0.0482375104    5.1005781065
H        0.6719907702    0.8023216465    4.5757840097
H       -0.4211526170    1.5429367674    5.7600734413
H       -0.0518034755   -2.5265910043    0.1623207372
H        0.9591518019   -3.3843463281    1.1371790259
30   
Generated by ForceBalance from scan.xyz: Frame 9 of 11
C       -3.0606628228    3.0263056568    3.0409286800
C       -2.7780672761    2.7608297693    1.6956048399
C       -2.2629909540    2.4668351945    4.0412669205
C       -1.6764448753    1.9677470188    1.3771963084
C       -1.2456918233    1.5478473447    3.7373233577
C       -0.9932830146    1.2609417678    2.3813299069
C       -1.2357892389   -1.1299644965    2.1295622491
C        0.5316221893   -0.0232438034    0.9292739288
C       -0.4394114408   -2.4244399463    2.2281504695
C        1.4194348726   -1.2609657449    0.9748816412
C       -0.5111763935    0.8321857452    4.8474189354
N       -0.3239130412    0.0076202176    2.1056992028
N        0.5359500899   -2.4953183740    1.0636592164
H       -3.8936451275    3.6702763884    3.3079836475
H       -3.3629245553    3.2226429658    0.9055204433
H       -2.4653002478    2.7032133903    5.0830652371
H       -1.4694963556    1.7577637113    0.3299556287
H       -1.8982333808   -1.1548741015    1.2431203777
H       -1.8825505642   -1.0646632345    3.0061766104
H        1.1783126367    0.8572526533    0.9262784800
H       -0.0318763048   -0.0185362289   -0.0235600449
H        0.1633807423   -2.4456455874    3.1373006595
H       -1.0741107849   -3.3115646994    2.1773703853
H        2.0389301413   -1.3668121253    0.0817790982
H        2.0455910457   -1.2646294965    1.8683639903
H       -0.9851708847   -0.1258510967    5.0988795436
H        0.5249741651    0.6219804004    4.5722915314
H       -0.5137580152    1.4345091938    5.7592691505
H        0.0018610573   -2.5830410772    0.1901787683
H        1.1144130958   -3.3395325982    1.1376424526
30   
Generated by ForceBalance from scan.xyz: Frame 10 of 11
C       -2.9432668844    3.1859151874    3.0342457037
C       -2.6941951082    2.8799055906    1.6934367065
C       -2.2512247299    2.5093021038    4.0413459743
C       -1.7451870843    1.9066855440    1.3761511944
C       -1.3447308708    1.4808106150    3.7456538631
C       -1.1226926626    1.1652711542    2.3905167107
C       -1.2052648331   -1.2517738610    2.1865830923
C        0.4170820711   -0.0405947499    0.8888531987
C       -0.3047430434   -2.4761362317    2.2856924462
C        1.4051387802   -1.2002285604    0.9325966735
C       -0.6623817837    0.7217277407    4.8596676684
N       -0.3907193514   -0.0457174902    2.0975678108
N        0.6305839241   -2.4996071843    1.0870023251
H       -3.6667304315    3.9531198227    3.2945380008
H       -3.2083991985    3.4153166820    0.9006173379
H       -2.4291829227    2.7704611082    5.0816177475
H       -1.5665002995    1.6660948135    0.3313375638
H       -1.8956421333   -1.3542594594    1.3273632182
H       -1.8226679106   -1.2157553650    3.0852804014
H        0.9879790789    0.8891959890    0.8350683311
H       -0.1807291064   -0.1121264626   -0.0399580177
H        0.3297218436   -2.4251205843    3.1718307553
H       -0.8668814363   -3.4122964942    2.2796319038
H        1.9976982253   -1.2806763551    0.0188032093
H        2.0620187318   -1.1265949355    1.8005711460
H       -1.2057145436   -0.1952574334    5.1233537470
H        0.3540624192    0.4327096681    4.5801106878
H       -0.6134699430    1.3296222960    5.7661871714
H        0.0742064060   -2.6551871802    0.2371750412
H        1.2790470350   -3.2914569894    1.1596407850
30   
Generated by ForceBalance from scan.xyz: Frame 11 of 11
C       -2.7998742052    3.3343793879    3.0158335086
C       -2.6139149197    2.9833040935    1.6772081073
C       -2.2081623959    2.5679481607    4.0228762735
C       -1.8467121472    1.8602293280    1.3591732224
C       -1.4234367207    1.4446771606    3.7279608989
C       -1.2555859780    1.0944389448    2.3725857544
C       -1.1701507641   -1.3361314218    2.1934803747
C        0.3086991548   -0.0215385993    0.8267523992
C       -0.1719441067   -2.4830699797    2.2846056702
C        1.3883605249   -1.0970952969    0.8614230020
C       -0.7782405052    0.6520093112    4.8401934521
N       -0.4597634506   -0.0692009049    2.0595043050
N        0.7279917993   -2.4523464234    1.0595877550
H       -3.3945421772    4.2053231096    3.2756352427
H       -3.0647453704    3.5736759261    0.8848232619
H       -2.3423474694    2.8560055601    5.0625737309
H       -1.7177171464    1.5865046877    0.3156053115
H       -1.8749796606   -1.5107673038    1.3581414543
H       -1.7612549513   -1.3340627789    3.1101886622
H        0.8011723693    0.9496123546    0.7406780506
H       -0.3070024493   -0.1587941059   -0.0825191099
H        0.4811033757   -2.3661614769    3.1508323981
H       -0.6565801675   -3.4612885634    2.3095360030
H        1.9596542461   -1.1457154817   -0.0680312491
H        2.0611503471   -0.9536194257    1.7082234041
H       -1.3763113869   -0.2257339698    5.1176733547
H        0.2146785415    0.2974995628    4.5489752255
H       -0.6766664564    1.2609762331    5.7413327066
H        0.1629096689   -2.6687802133    0.2290407916
H        1.4412199996   -3.1870098641    1.1260362199
