26   

C        0.3833040631   -0.4961922791   -0.3399103073
C        7.4795932343   -0.2461204753    4.7883797537
C        1.5796917239    0.1762196720   -0.0742138912
C       -0.1360172435   -1.3877784105    0.6027444404
C        6.9671841248   -0.6875800027    3.5650165368
C        6.6066199126    0.1751755470    5.7951820558
C        2.2544521544   -0.0445468294    1.1325667702
C        0.5399906109   -1.6030456207    1.8093939649
C        5.5836938713   -0.7062905736    3.3506188229
C        5.2240147910    0.1516885165    5.5779187433
C        1.7419217659   -0.9349446795    2.0873292042
C        4.6975707677   -0.2883288725    4.3541982531
C        2.4376097912   -1.1515483669    3.3572829463
C        3.2500796820   -0.3257621338    4.1367681764
H       -0.1412097841   -0.3255153728   -1.2732791046
H        8.5505397104   -0.2321588741    4.9566204192
H        1.9841298437    0.8712011116   -0.8012040824
H       -1.0637299928   -1.9110919829    0.4009176742
H        7.6406756993   -1.0184568209    2.7827017891
H        6.9997195266    0.5179669366    6.7455544929
H        3.1791377283    0.4840955465    1.3342554512
H        0.1262904259   -2.2926821943    2.5358914030
H        5.1929644628   -1.0546396754    2.4013211657
H        4.5553877194    0.4757351430    6.3668891420
H        2.3066482260   -2.1434002757    3.7732223600
H        2.6990364400    0.4356829221    4.6757298688
26   

C        0.6188705859   -0.5015165173   -0.3404998126
C        7.3975165410   -0.1895055117    4.5746703837
C        1.7690888866    0.1881642830    0.0528598058
C        0.0251720097   -1.4158935088    0.5336130419
C        6.7884945844   -0.6964051803    3.4233481220
C        6.6082198919    0.2577187779    5.6375137786
C        2.3232891141   -0.0374947446    1.3185687973
C        0.5818227923   -1.6381890234    1.7985301641
C        5.3923794301   -0.7551569964    3.3367897576
C        5.2127107418    0.1966347293    5.5474706409
C        1.7370586981   -0.9534901319    2.2057626523
C        4.5882051539   -0.3088178810    4.3969351591
C        2.3031591079   -1.1803296901    3.5392687423
C        3.1259291432   -0.3847065777    4.3186123963
H        0.1871558149   -0.3260669716   -1.3194026377
H        8.4785600366   -0.1456018897    4.6441483154
H        2.2308857582    0.9011316692   -0.6205793435
H       -0.8682592887   -1.9515198250    0.2334201108
H        7.3969235887   -1.0478680414    2.5978868060
H        7.0764203821    0.6497312344    6.5332516755
H        3.2107845905    0.5088591486    1.6166304811
H        0.1097510762   -2.3460879114    2.4697137835
H        4.9305454429   -1.1577467487    2.4425727980
H        4.6110417071    0.5418431719    6.3801089275
H        2.0528622979   -2.1338168031    3.9888975641
H        2.5945402352    0.3047267229    4.9637945064
26   

C        0.8385566053   -0.4905489668   -0.3317119401
C        7.3150127319   -0.1537946069    4.3740007293
C        1.9048640875    0.2505744573    0.1844737129
C        0.2188662256   -1.4590686650    0.4619501056
C        6.6349295692   -0.7647941955    3.3171714770
C        6.5960394170    0.3626707983    5.4548753005
C        2.3487902840    0.0231317103    1.4925571653
C        0.6668143407   -1.6852755950    1.7685997496
C        5.2384111441   -0.8593340739    3.3431979659
C        5.1996894393    0.2683137995    5.4764620879
C        1.7372670033   -0.9493023998    2.3005710355
C        4.5026497956   -0.3418679163    4.4217904282
C        2.1831580841   -1.1832362847    3.6795195389
C        3.0394918692   -0.4517754391    4.4675231481
H        0.4915188303   -0.3129010981   -1.3433455425
H        8.3967251023   -0.0831161155    4.3567208648
H        2.3869860483    1.0051745134   -0.4264523357
H       -0.6110325163   -2.0339085607    0.0669182281
H        7.1885682711   -1.1696247046    2.4777129571
H        7.1196663290    0.8343174854    6.2786391374
H        3.1710625932    0.6117966542    1.8829086750
H        0.1740047410   -2.4363320801    2.3747533593
H        4.7247517599   -1.3440081732    2.5208358813
H        4.6549102349    0.6689936150    6.3232451329
H        1.7952883163   -2.0787870666    4.1502384029
H        2.5496039057    0.1470599142    5.2260984451
26   

C        1.0328927559   -0.4710535984   -0.3081002264
C        7.2298948908   -0.1366154023    4.1972983259
C        2.0003315115    0.3252936540    0.3101970178
C        0.4133868896   -1.4945831224    0.4131417488
C        6.5034134220   -0.8516183684    3.2415811530
C        6.5648308671    0.4529742319    5.2751038713
C        2.3446431269    0.0990452457    1.6481111683
C        0.7635485858   -1.7210736094    1.7492402094
C        5.1148194598   -0.9781927633    3.3662322928
C        5.1757918140    0.3284680310    5.3940014540
C        1.7331473021   -0.9291370042    2.3847261861
C        4.4319337776   -0.3872667625    4.4424104714
C        2.0722477920   -1.1659128237    3.7954234415
C        2.9765767456   -0.5276293742    4.5951040238
H        0.7622565657   -0.2938919851   -1.3428690996
H        8.3058560805   -0.0416883656    4.1041720361
H        2.4831932476    1.1215644717   -0.2446549564
H       -0.3408159996   -2.1122178049   -0.0611052769
H        7.0148008631   -1.3120209178    2.4039802474
H        7.1248093313    1.0050407265    6.0213286400
H        3.0915368421    0.7301771214    2.1160048850
H        0.2718476349   -2.5162613436    2.2971497217
H        4.5661439478   -1.5424020222    2.6207612131
H        4.6740524035    0.7880639227    6.2374044513
H        1.5340868320   -1.9731605245    4.2780450648
H        2.5479036866   -0.0470453912    5.4665787924
26   

C        1.2068016518   -0.4515406953   -0.2812606802
C        7.1495648814   -0.1240913164    4.0397071968
C        2.0738095997    0.3953601241    0.4141219989
C        0.6005097638   -1.5203120816    0.3834828482
C        6.3996644891   -0.9324690006    3.1813949828
C        6.5209115002    0.5277714710    5.1034871506
C        2.3297724699    0.1750338488    1.7726439439
C        0.8642040249   -1.7415925326    1.7401733339
C        5.0245681275   -1.0909585680    3.3902814141
C        5.1445790987    0.3723983887    5.3051298260
C        1.7308564102   -0.8981437000    2.4529201201
C        4.3782722717   -0.4382306034    4.4529855975
C        1.9778081076   -1.1317102303    3.8850696819
C        2.9363932139   -0.6092100946    4.6942701585
H        1.0040168913   -0.2789256729   -1.3321816578
H        8.2154548646   -0.0045332971    3.8818013912
H        2.5476335164    1.2256235406   -0.0969282735
H       -0.0762431048   -2.1773566995   -0.1508093724
H        6.8821698276   -1.4398733772    2.3539011998
H        7.0993900303    1.1524449945    5.7745435537
H        3.0004735287    0.8432309222    2.3006857374
H        0.3852916954   -2.5729431469    2.2439443474
H        4.4562158632   -1.7252634920    2.7196084204
H        4.6702282598    0.8819556818    6.1355712434
H        1.2931182925   -1.8162656330    4.3719504661
H        2.5824947829   -0.2754334821    5.6626801300
26   

C        1.3461346650   -0.4384850588   -0.2495895658
C        7.0740490175   -0.1158236659    3.9182126880
C        2.1328454475    0.4459886459    0.4931661334
C        0.7477986861   -1.5319688334    0.3817046285
C        6.3168455881   -0.9902667221    3.1340663803
C        6.4680622954    0.5706332841    4.9735816493
C        2.3157788067    0.2385418941    1.8654037792
C        0.9398488473   -1.7404167147    1.7524304071
C        4.9575531078   -1.1803364905    3.4092637324
C        5.1067382177    0.3839578534    5.2403694364
C        1.7244372075   -0.8588764594    2.5116147502
C        4.3346705475   -0.4932925287    4.4635820812
C        1.8974717575   -1.0806789140    3.9581562965
C        2.9080072388   -0.6951200967    4.7726542423
H        1.1997525235   -0.2761539181   -1.3114493903
H        8.1279750042    0.0285258619    3.7090976656
H        2.6014734861    1.2946267561    0.0082169512
H        0.1331797022   -2.2182610400   -0.1895920976
H        6.7811050529   -1.5236140254    2.3124954409
H        7.0524822146    1.2466757512    5.5872208598
H        2.9258380613    0.9328417402    2.4319800732
H        0.4697877324   -2.5912004886    2.2315204762
H        4.3807833517   -1.8633359771    2.7960081593
H        4.6478437798    0.9207831385    6.0622894515
H        1.0887644126   -1.6131560839    4.4451971662
H        2.6302705855   -0.5297230395    5.8071852519
26   

C        1.4393343179   -0.4382097591   -0.2215058446
C        7.0156583927   -0.1044845092    3.8408909450
C        2.1859828611    0.4663686703    0.5384857400
C        0.8297850616   -1.5303702185    0.4016967447
C        6.2607341696   -1.0116314042    3.0922292952
C        6.4218177217    0.5809623368    4.9040248748
C        2.3175843014    0.2800540265    1.9195931322
C        0.9711145594   -1.7174957014    1.7816688714
C        4.9160758671   -1.2350774752    3.4107399729
C        5.0745961298    0.3607893752    5.2135914713
C        1.7150086333   -0.8157118196    2.5569122643
C        4.3061037898   -0.5490437492    4.4725014654
C        1.8378587037   -1.0165489958    4.0133602846
C        2.8927851185   -0.7840488366    4.8243794472
H        1.3329703627   -0.2926921899   -1.2905330464
H        8.0583394991    0.0662582018    3.5980539759
H        2.6638503341    1.3135088575    0.0600083424
H        0.2462891755   -2.2322535165   -0.1831130331
H        6.7150992673   -1.5437081775    2.2643460290
H        7.0045965520    1.2823979631    5.4900843653
H        2.8980973369    0.9870460269    2.5013995344
H        0.4943000480   -2.5671586881    2.2560903528
H        4.3382880447   -1.9410578543    2.8250092220
H        4.6230062724    0.8966622473    6.0401881905
H        0.9402791690   -1.3733724711    4.5052072398
H        2.6796399015   -0.8025422768    5.8869772614
26   

C        1.5728313098   -0.9307094442   -0.2463393053
C        6.8838789511    0.3878013901    3.8644227568
C        2.6635588285   -1.5469946637    0.3735517518
C        0.5696858881   -0.3483916868    0.5331938491
C        5.8028872632    1.0080937796    3.2316056422
C        6.6520387534   -0.6118414937    4.8131276647
C        2.7467272900   -1.5836671902    1.7704502590
C        0.6614148312   -0.3801419029    1.9295562222
C        4.4933090089    0.6310434692    3.5516479729
C        5.3410312835   -0.9913762357    5.1237300805
C        1.7490723865   -0.9973971806    2.5639639447
C        4.2476890361   -0.3753097701    4.4980020711
C        1.8227902458   -1.0366415978    4.0384166303
C        2.8700834146   -0.7758785342    4.8486826206
H        1.5050642591   -0.9048688951   -1.3280234855
H        7.8985643282    0.6813803061    3.6204401637
H        3.4464193130   -1.9971086108   -0.2259943127
H       -0.2800662994    0.1272270679    0.0569384336
H        5.9767430306    1.7814984335    2.4923159686
H        7.4871333834   -1.0929850047    5.3093427537
H        3.5959839960   -2.0626090397    2.2446313597
H       -0.1205876602    0.0737049989    2.5269615133
H        3.6595235479    1.1157134480    3.0562998016
H        5.1696334283   -1.7674052448    5.8604794307
H        0.9145583119   -1.3604749363    4.5335064931
H        2.6656299610   -0.8274303024    5.9118888863
26   

C        1.5457717534   -0.9758574853   -0.2497046906
C        6.8859790384    0.4252692954    3.9017864007
C        2.6288973975   -1.5909799981    0.3841682647
C        0.5563242080   -0.3532188644    0.5158390979
C        5.7948195059    1.0376776469    3.2791648051
C        6.6715021924   -0.6040725350    4.8222183726
C        2.7180488719   -1.5865784392    1.7811352248
C        0.6539242466   -0.3438209129    1.9121516578
C        4.4923133792    0.6233888809    3.5813809335
C        5.3677367900   -1.0209317790    5.1150198956
C        1.7339073855   -0.9599924314    2.5614257367
C        4.2634130491   -0.4129854050    4.4998263612
C        1.8115432713   -0.9581208593    4.0346693904
C        2.8948944021   -0.8509440591    4.8343568308
H        1.4732276911   -0.9823249603   -1.3313705983
H        7.8950592204    0.7481133479    3.6719250732
H        3.4011327740   -2.0725848122   -0.2046041107
H       -0.2877040953    0.1215479252    0.0286822327
H        5.9552332709    1.8343455710    2.5618564020
H        7.5146023932   -1.0791510640    5.3106773715
H        3.5613997401   -2.0667290086    2.2644012181
H       -0.1185609727    0.1411062693    2.4973603106
H        3.6518185589    1.1045132254    3.0941253011
H        5.2113914435   -1.8196307074    5.8305560539
H        0.8649680291   -1.0930386375    4.5452369252
H        2.7310803055   -1.0910811222    5.8785722934
26   

C        1.4641815315   -1.0142695254   -0.2837708122
C        6.9374414846    0.4534226624    3.9785080525
C        2.5749903673   -1.5904570477    0.3383260477
C        0.4839492757   -0.3872354594    0.4896775273
C        5.8558820682    1.0394800102    3.3154401851
C        6.7135083594   -0.5803473547    4.8914284332
C        2.7012273929   -1.5430072837    1.7316469837
C        0.6179760765   -0.3348302982    1.8819839484
C        4.5531868470    0.5946436093    3.5696770602
C        5.4101017939   -1.0277487090    5.1367668166
C        1.7261975095   -0.9118627249    2.5206768110
C        4.3141467351   -0.4465830274    4.4808867565
C        1.8400553175   -0.8673681310    3.9892302367
C        2.9466124208   -0.9145482240    4.7680329607
H        1.3628848185   -1.0546220321   -1.3623976397
H        7.9463646729    0.8003552375    3.7860584175
H        3.3397809847   -2.0760737441   -0.2568601778
H       -0.3815777167    0.0573077710    0.0117891540
H        6.0238576191    1.8401604152    2.6043354325
H        7.5490442888   -1.0350134874    5.4113238174
H        3.5658338009   -1.9958594147    2.2034674740
H       -0.1492090123    0.1530284563    2.4716776258
H        3.7216741090    1.0586663686    3.0515030967
H        5.2484561273   -1.8293422223    5.8478483184
H        0.8998579009   -0.8077965663    4.5251671383
H        2.8003200765   -1.3411038569    5.7536278043
26   

C        1.3353406620   -1.0518154286   -0.3281296437
C        7.0146685470    0.4737158904    4.0951116943
C        2.5027539862   -1.5521142421    0.2544159676
C        0.3594138946   -0.4573224829    0.4755399754
C        5.9659890024    1.0139545476    3.3461615707
C        6.7546087877   -0.5381984563    5.0225476341
C        2.6905232838   -1.4610550048    1.6386499811
C        0.5537346173   -0.3618403137    1.8583676245
C        4.6596646006    0.5449752785    3.5284504928
C        5.4482471918   -1.0094008072    5.1971230443
C        1.7200029053   -0.8619255243    2.4585782658
C        4.3839256918   -0.4750470931    4.4540162597
C        1.8966032722   -0.7745877339    3.9171624202
C        3.0129778578   -0.9659107416    4.6681191572
H        1.1866513296   -1.1262385798   -1.3994391683
H        8.0259899890    0.8395932798    3.9583131264
H        3.2636278912   -2.0136156962   -0.3645392320
H       -0.5498484330   -0.0717648359    0.0285956892
H        6.1622401246    1.7986993923    2.6245806623
H        7.5643116245   -0.9572566874    5.6090145226
H        3.5986972749   -1.8582511284    2.0775299851
H       -0.2125242378    0.0995695344    2.4701163704
H        3.8551301605    0.9770551390    2.9443338229
H        5.2604220691   -1.7930240149    5.9216540784
H        1.0051596779   -0.5265163238    4.4813070370
H        2.8654532759   -1.5650346869    5.5590496609
26   

C        1.1705971476   -1.1054255857   -0.3562461785
C        7.0866222774    0.4958545154    4.2538874838
C        2.4041527861   -1.5069926812    0.1628707256
C        0.2036480838   -0.5642598936    0.4944814767
C        6.0941626154    0.9789246724    3.3971101908
C        6.7689515783   -0.4793178910    5.2024205245
C        2.6678129858   -1.3694965066    1.5308387099
C        0.4724482853   -0.4237993308    1.8608967348
C        4.7863078785    0.4886999090    3.4916791995
C        5.4613646097   -0.9706816460    5.2909686515
C        1.7067090900   -0.8232035636    2.3977480255
C        4.4529880106   -0.4949113128    4.4377719916
C        1.9637533199   -0.6898890550    3.8390264198
C        3.0798227715   -1.0052612112    4.5598578193
H        0.9636584680   -1.2155392218   -1.4147495632
H        8.0988178204    0.8779840113    4.1845194315
H        3.1574449115   -1.9286008279   -0.4927671255
H       -0.7564067298   -0.2552722740    0.0969555667
H        6.3351576337    1.7364491523    2.6601295089
H        7.5346716561   -0.8540002782    5.8721147511
H        3.6266908089   -1.6926385252    1.9197264616
H       -0.2886499541   -0.0057941530    2.5092008992
H        4.0257523871    0.8788786252    2.8250303878
H        5.2289765985   -1.7243343985    6.0341402097
H        1.1532293554   -0.2702560957    4.4231059780
H        2.9235220234   -1.7514360966    5.3299118522
26   

C        0.9809276243   -1.1725708965   -0.3759346685
C        7.1560024517    0.5224898844    4.4418827899
C        2.2774817706   -1.4660022702    0.0548565853
C        0.0390161413   -0.6919733248    0.5371780168
C        6.2457267222    0.9463776187    3.4700514993
C        6.7594511324   -0.4102848813    5.4034573586
C        2.6296000226   -1.2796621255    1.3969404602
C        0.3952486469   -0.5048373247    1.8777865840
C        4.9412565319    0.4382612829    3.4618455385
C        5.4550611503   -0.9177797860    5.3908544145
C        1.6939252956   -0.7944049628    2.3251050306
C        4.5298448684   -0.5020856776    4.4204565529
C        2.0476176613   -0.6125260341    3.7387183635
C        3.1587492670   -1.0277267593    4.4319140340
H        0.7059692878   -1.3198156761   -1.4142574583
H        8.1654360586    0.9178961531    4.4514885326
H        3.0109726507   -1.8418999651   -0.6492639356
H       -0.9690139512   -0.4663940642    0.2082201353
H        6.5478460968    1.6721377441    2.7236676947
H        7.4611629035   -0.7393180095    6.1614555060
H        3.6363708091   -1.5200469068    1.7189038871
H       -0.3465994838   -0.1358783921    2.5762837950
H        4.2430968416    0.7828708943    2.7076221268
H        5.1594527601   -1.6372239083    6.1454314196
H        1.3350800772   -0.0493287417    4.3295903111
H        2.9935743474   -1.8874542006    5.0703627969
26   

C        0.7808890349   -1.2475594440   -0.3984113801
C        7.2293395649    0.5545269082    4.6409303213
C        2.1272593017   -1.4426579946   -0.0780682753
C       -0.1112051316   -0.8160337546    0.5867787746
C        6.4239244442    0.9324897189    3.5630399534
C        6.7388224100   -0.3441552311    5.5919341723
C        2.5789638144   -1.2060637735    1.2257944136
C        0.3440998603   -0.5813320343    1.8894332271
C        5.1304498487    0.4115657736    3.4379835968
C        5.4447745831   -0.8621643082    5.4638480177
C        1.6934085966   -0.7720619192    2.2244121727
C        4.6259597156   -0.4921036902    4.3859685320
C        2.1578759491   -0.5400479043    3.5956709670
C        3.2656144878   -1.0267294776    4.2692673555
H        0.4291232681   -1.4326485065   -1.4070803627
H        8.2303324206    0.9589091866    4.7404267422
H        2.8221153190   -1.7808604772   -0.8382613948
H       -1.1567679345   -0.6653692361    0.3432031975
H        6.7989981897    1.6321992730    2.8249170050
H        7.3593718653   -0.6384906361    6.4306928027
H        3.6235962363   -1.3683529378    1.4653945336
H       -0.3580181296   -0.2515963622    2.6462453906
H        4.5112929056    0.7176809775    2.6025547603
H        5.0734629128   -1.5545918846    6.2102602878
H        1.5455433633    0.1363460968    4.1800452717
H        3.0960902076   -1.9672402307    4.7798106982
26   

C        0.5719527397   -1.3506189862   -0.4057441394
C        7.2868508914    0.6066134392    4.8608833467
C        1.9481347070   -1.4925070342   -0.2056159503
C       -0.2412878135   -0.9173435936    0.6450346517
C        6.5921087262    0.9787304229    3.7063587745
C        6.7095082369   -0.2965020994    5.7577003508
C        2.5082550189   -1.2004350335    1.0439063003
C        0.3222666013   -0.6296507634    1.8936298107
C        5.3224202500    0.4469048809    3.4506261458
C        5.4385031775   -0.8232327425    5.4999332210
C        1.7020788707   -0.7673012048    2.1067256792
C        4.7316146768   -0.4582310334    4.3443728015
C        2.2851939880   -0.4799935910    3.4189424652
C        3.3957663806   -0.9998907843    4.0864675477
H        0.1363198909   -1.5775612488   -1.3722560669
H        8.2695674877    1.0184081941    5.0611726670
H        2.5819899426   -1.8315889576   -1.0169962092
H       -1.3090758540   -0.8062517921    0.4942763438
H        7.0348627747    1.6815684193    3.0098866805
H        7.2446605560   -0.5875496833    6.6544412903
H        3.5755392270   -1.3175008200    1.1935345089
H       -0.3177582112   -0.2991196317    2.7033566524
H        4.7871537075    0.7437143525    2.5558721856
H        4.9975302206   -1.5190026574    6.2041981763
H        1.7641120098    0.2862183597    3.9804690719
H        3.2349704578   -1.9964986995    4.4799606499
