29   
Generated by ForceBalance from scan.xyz: Frame 1 of 10
C        3.8906082760    0.2117802232   -2.5684063063
C        5.0773561581    0.3574534013   -0.4487568124
C        5.0563635107    0.5537140220   -3.2430403103
C        6.2503733629    0.6974251229   -1.1198649947
C        3.8893584340    0.1163227039   -1.1609185675
C        0.5941135797   -0.7604477858   -0.3215779842
C        6.2252900556    0.7997897515   -2.5120128394
C       -0.6184073761   -1.1474172779   -0.9136190369
C        0.2213717786   -0.6071663337    1.1823732235
N        2.7697923661   -0.2165097268   -0.3688973196
N        1.7032290369   -0.4399152120   -1.0396770312
N       -1.4867067104   -1.5135152723    0.1773614769
N       -1.2418432778   -0.3566595458    1.0475991125
N       -1.0000140561   -1.3223475040   -2.1796402160
N        7.5932720272    2.9447285613   -3.5132022030
O        0.8417371572   -0.6653846092    2.2058258995
O        8.8580871484    0.9607289399   -2.5080272317
O        7.6249577754    0.7360440106   -4.7546719188
S        7.7193158237    1.2520708034   -3.3849173525
H        2.9756706994    0.0102918259   -3.1143285250
H        5.0568250906    0.2646553033    0.6329486467
H        5.0771622094    0.6150913837   -4.3266799325
H        7.1765195063    0.8641617523   -0.5793754605
H       -1.1938736844   -2.3538770720    0.6678777525
H       -1.4437122910    0.4785004122    0.5038296334
H       -1.9388820274   -1.6419137530   -2.3817351824
H       -0.3854999940   -1.0362057782   -2.9324490513
H        8.3146138444    3.3831798051   -2.9419107043
H        7.6949218117    3.2076315955   -4.4928805691
29   
Generated by ForceBalance from scan.xyz: Frame 2 of 10
C        3.8364374531    0.3018849638   -2.5535225417
C        5.0585815667    0.3007114291   -0.4489023996
C        5.0058942651    0.6233729720   -3.2319433998
C        6.2358376909    0.6190424149   -1.1240827947
C        3.8533206706    0.1395546854   -1.1528467609
C        0.5422758876   -0.6910679132   -0.3008401249
C        6.1949916402    0.7835185748   -2.5095565109
C       -0.6211744003   -1.1580571699   -0.9136694992
C        0.1808731484   -0.5248519835    1.1638759103
N        2.7302498476   -0.1801990722   -0.3560973165
N        1.6653900715   -0.4022948548   -1.0230281755
N       -1.5775166004   -1.4642873436    0.1032238745
N       -1.3001788507   -0.4704302513    1.1097992703
N       -0.8537842473   -1.5052680541   -2.1856716749
N        7.6263711595    2.9083839705   -3.4634598666
O        0.8465654687   -0.3654439105    2.1529545766
O        8.8319650984    0.8544115920   -2.5306189726
O        7.5688328976    0.7364264521   -4.7684218582
S        7.6954137770    1.2099955644   -3.3861467682
H        2.9039650780    0.1719841231   -3.0915288546
H        5.0481311518    0.1638436557    0.6282497667
H        5.0125109249    0.7362865641   -4.3116280272
H        7.1760215772    0.7234812480   -0.5923466577
H       -1.4806689543   -2.3946417036    0.5003914275
H       -1.6438373908    0.4296054681    0.7832058576
H       -1.7999042666   -1.7181164422   -2.4755413097
H       -0.1575959910   -1.2752405326   -2.8854631186
H        8.3733514118    3.3052494694   -2.8947474602
H        7.7162098351    3.1972211281   -4.4369306690
29   
Generated by ForceBalance from scan.xyz: Frame 3 of 10
C        3.8064854687    0.3129628292   -2.5940317448
C        5.0417400483    0.2227762884   -0.4990503395
C        4.9817949677    0.6105005086   -3.2736121356
C        6.2253374910    0.5154331462   -1.1750789419
C        3.8287115324    0.1144868830   -1.1986490094
C        0.5059875801   -0.6860805523   -0.3503742354
C        6.1802059056    0.7115864657   -2.5562357380
C       -0.6320351338   -1.1844802476   -0.9748716133
C        0.1395072394   -0.4644740361    1.0847347435
N        2.6984105216   -0.1856476691   -0.4016517778
N        1.6410664401   -0.4226653594   -1.0709206043
N       -1.6421733619   -1.4149174103   -0.0190494248
N       -1.3144267615   -0.5836667526    1.0865491644
N       -0.7736016126   -1.6544514907   -2.2309176366
N        7.6793937053    2.8065514294   -3.4708808226
O        0.7905110985   -0.0914727266    2.0328392294
O        8.8176766262    0.6884654525   -2.5968465061
O        7.5351064365    0.6705188061   -4.8267109482
S        7.6888102725    1.1056831305   -3.4345797672
H        2.8653512598    0.2321584061   -3.1266804052
H        5.0325059573    0.0652898001    0.5752778578
H        4.9847729536    0.7517484440   -4.3499616726
H        7.1718807143    0.5767897165   -0.6479216147
H       -1.7659700771   -2.3853525941    0.2565440306
H       -1.8200435155    0.2970356016    1.0696857434
H       -1.7075862750   -1.7242997696   -2.6158795370
H       -0.0122104206   -1.4633966170   -2.8732215347
H        8.4401975373    3.1639324763   -2.8944037862
H        7.7771859748    3.1157142174   -4.4373173386
29   
Generated by ForceBalance from scan.xyz: Frame 4 of 10
C        3.8085960223    0.3744739668   -2.5732799418
C        5.0496907210    0.2874722249   -0.4813275351
C        4.9832218564    0.6651721552   -3.2572959312
C        6.2327857896    0.5709511479   -1.1622269947
C        3.8352334114    0.1795495762   -1.1779034718
C        0.5213931662   -0.6532420978   -0.3203165532
C        6.1841836392    0.7622139776   -2.5439796917
C       -0.5976954888   -1.1826332875   -0.9462882552
C        0.1563562880   -0.3939106909    1.0981292029
N        2.7039413897   -0.1120518803   -0.3778244509
N        1.6593569298   -0.3971511486   -1.0453313086
N       -1.6349466827   -1.3552417654   -0.0305887061
N       -1.2503352563   -0.6828082805    1.1524640125
N       -0.6983196225   -1.7125938505   -2.1926651458
N        7.6963421228    2.8480270262   -3.4586670629
O        0.7729802900    0.1107095223    2.0146461294
O        8.8213710966    0.7189038194   -2.5972664345
O        7.5276664355    0.7167917470   -4.8208499372
S        7.6918638407    1.1471795610   -3.4284433249
H        2.8648916537    0.2979900834   -3.1020838402
H        5.0423295250    0.1361034671    0.5938972892
H        4.9834182128    0.8046960954   -4.3338498575
H        7.1811527367    0.6302065732   -0.6381261516
H       -1.9081569789   -2.3209596750    0.1366472918
H       -1.8629102234    0.0838534721    1.4107923274
H       -1.6074645314   -1.6757770804   -2.6390976594
H        0.0969081681   -1.5213126001   -2.7939584456
H        8.4680178327    3.1967755505   -2.8914346746
H        7.7826382706    3.1606375399   -4.4250546724
29   
Generated by ForceBalance from scan.xyz: Frame 5 of 10
C        3.8713374965    0.4019606902   -2.4865342422
C        5.0634869264    0.4253269980   -0.3645819447
C        5.0555164465    0.6919553907   -3.1542963325
C        6.2561971410    0.7090749334   -1.0284370259
C        3.8688553230    0.2633046584   -1.0843241815
C        0.5557179359   -0.6059309276   -0.2565156032
C        6.2362673668    0.8449482562   -2.4173410580
C       -0.5580997404   -1.1250900620   -0.8934441637
C        0.1819610781   -0.3629834438    1.1489812658
N        2.7260382495   -0.0218992440   -0.2979694085
N        1.7004520642   -0.3478181094   -0.9744264960
N       -1.6301567524   -1.2531409633   -0.0202228854
N       -1.1866585200   -0.7853162949    1.2473882590
N       -0.6478506097   -1.6284266452   -2.1566563867
N        7.7200967090    2.9294593918   -3.3791670982
O        0.7706872867    0.1750271925    2.0687702577
O        8.8746159444    0.8666250818   -2.4054519325
O        7.6370414951    0.7410156391   -4.6573693551
S        7.7562272900    1.2317490942   -3.2805144081
H        2.9427015488    0.2827960994   -3.0337488012
H        5.0332055028    0.3156712999    0.7152722893
H        5.0787303726    0.7884058630   -4.2353199683
H        7.1901997319    0.8106281326   -0.4853980968
H       -2.0169255964   -2.1936944480    0.0346694333
H       -1.8121195450   -0.0987446663    1.6594349305
H       -1.5406296509   -1.5270093228   -2.6263215380
H        0.1635733786   -1.4223379482   -2.7314709394
H        8.4729446241    3.3194545221   -2.8135069372
H        7.8153830131    3.2059341491   -4.3556556065
29   
Generated by ForceBalance from scan.xyz: Frame 6 of 10
C        3.8961233693    0.3637035214   -2.4700112672
C        5.0535837810    0.4804588434   -0.3321949311
C        5.0864051324    0.6471835451   -3.1295751304
C        6.2525527678    0.7581638791   -0.9873455587
C        3.8728308975    0.2756817803   -1.0638701569
C        0.5590521162   -0.6064084675   -0.2519628765
C        6.2528075506    0.8444828715   -2.3803261111
C       -0.5604742159   -1.0998131341   -0.9016173978
C        0.1809755071   -0.3771802679    1.1521713723
N        2.7219374347    0.0031425705   -0.2850685178
N        1.7096637975   -0.3566952865   -0.9641628859
N       -1.6516246166   -1.1604149445   -0.0494776315
N       -1.1424519148   -0.9221835126    1.2676448159
N       -0.6560863501   -1.5613293935   -2.1815398291
N        7.7134389691    2.9167898784   -3.4012359223
O        0.7479259287    0.1716511173    2.0802169119
O        8.8895979666    0.9164501814   -2.3256131358
O        7.6944906595    0.6787180386   -4.5911208503
S        7.7801453760    1.2254066592   -3.2330482631
H        2.9784127464    0.2106664168   -3.0270641950
H        5.0077011135    0.4085724234    0.7502756492
H        5.1254145263    0.7051238704   -4.2128989028
H        7.1762743968    0.8928950685   -0.4340379976
H       -2.1511531628   -2.0483347702   -0.0898334050
H       -1.7638167130   -0.3219424125    1.8057600281
H       -1.5409269690   -1.4163644501   -2.6551753955
H        0.1624000027   -1.3440127300   -2.7425519058
H        8.4432785011    3.3447055944   -2.8328236228
H        7.8296721680    3.1552288853   -4.3854795090
29   
Generated by ForceBalance from scan.xyz: Frame 7 of 10
C        3.8834757955    0.2880570554   -2.5270914153
C        5.0359405065    0.5299696966   -0.3970222728
C        5.0667764705    0.5727909164   -3.1987567574
C        6.2274296664    0.8095202952   -1.0645232301
C        3.8608270041    0.2632477084   -1.1184346822
C        0.5656253677   -0.6473287301   -0.2661747186
C        6.2271254954    0.8344069974   -2.4600957285
C       -0.5740268304   -1.1126237949   -0.9105348081
C        0.2077461958   -0.4489671074    1.1542462912
N        2.7178412237   -0.0047440559   -0.3271141863
N        1.7066815093   -0.3972700070   -0.9907518182
N       -1.6550927792   -1.1034484689   -0.0398822501
N       -1.0578966958   -1.1221302427    1.2765484517
N       -0.7067476923   -1.5180289881   -2.2036221472
N        7.6545628366    2.9051349243   -3.5314993550
O        0.7669404278    0.0952625123    2.0878567778
O        8.8635696708    0.9451330248   -2.4231302014
O        7.6575052407    0.6413735097   -4.6751641488
S        7.7440267650    1.2183059505   -3.3296421901
H        2.9713560229    0.0842586576   -3.0769209288
H        4.9914500190    0.5038649348    0.6875940356
H        5.1058700776    0.5821133852   -4.2835474614
H        7.1467357790    0.9918569302   -0.5174886019
H       -2.2551542290   -1.9221414918   -0.1516287953
H       -1.6597597181   -0.6304200062    1.9372986504
H       -1.6026039771   -1.3593903438   -2.6512288886
H        0.0992468288   -1.2866804291   -2.7771749832
H        8.3920510400    3.3519019941   -2.9880130491
H        7.7469525687    3.1245647397   -4.5226394780
29   
Generated by ForceBalance from scan.xyz: Frame 8 of 10
C        3.9103534627    0.2561478781   -2.5176266031
C        5.0304910576    0.5922885382   -0.3839202313
C        5.0989917291    0.5310238224   -3.1838192602
C        6.2274185960    0.8628231514   -1.0451189657
C        3.8678479552    0.2833266946   -1.1092650396
C        0.5743088130   -0.6342986249   -0.2708272217
C        6.2458835924    0.8355698162   -2.4406189245
C       -0.5791024104   -1.0791218795   -0.9164442070
C        0.2118712311   -0.4847948774    1.1661299926
N        2.7186647501    0.0288744213   -0.3240177812
N        1.7171534142   -0.3911537845   -0.9880121895
N       -1.6514867925   -0.9954078349   -0.0219287297
N       -0.9849265319   -1.2970486629    1.2536475709
N       -0.7404251940   -1.4427960210   -2.2131615045
N        7.6638894119    2.8833796217   -3.5682523963
O        0.7371655483    0.0591427213    2.1149671717
O        8.8800767018    0.9799685244   -2.3739673827
O        7.7070811668    0.5792620737   -4.6285795439
S        7.7692092242    1.2058916856   -3.3039717768
H        3.0090464166    0.0186032280   -3.0716442510
H        4.9721562521    0.6053980093    0.7002701796
H        5.1527905670    0.4996083144   -4.2675699038
H        7.1366520467    1.0776228639   -0.4930223150
H       -2.3297594334   -1.7426524482   -0.1933676471
H       -1.5689559559   -0.9159166440    2.0026859355
H       -1.6487906356   -1.3041039311   -2.6407927086
H        0.0545603871   -1.2180354617   -2.8043009455
H        8.3930382938    3.3569906872   -3.0363675870
H        7.7616127243    3.0673451271   -4.5660588953
29   
Generated by ForceBalance from scan.xyz: Frame 9 of 10
C        3.9301724748    0.1531561483   -2.5132515634
C        4.9791002555    0.6680462160   -0.3787801128
C        5.1269617022    0.4227393437   -3.1659443808
C        6.1835611471    0.9377312832   -1.0261958132
C        3.8454897612    0.2761306124   -1.1109982002
C        0.5377721733   -0.6118958901   -0.3191389756
C        6.2413585893    0.8185768474   -2.4158343111
C       -0.6415211871   -1.0021913126   -0.9789076516
C        0.1847659173   -0.6090225384    1.1611240205
N        2.6877740904    0.0298281993   -0.3389815044
N        1.6828086203   -0.3679256078   -1.0175688628
N       -1.6650028832   -0.8814044821   -0.0150471533
N       -0.9310848254   -1.5442788184    1.1150051284
N       -0.8551747657   -1.2718871379   -2.2815606693
N        7.6095449661    2.8204007059   -3.6807932944
O        0.6739511857   -0.1310303531    2.1559439504
O        8.8621966417    1.0841082402   -2.2822718408
O        7.7855685301    0.4374813259   -4.5276785554
S        7.7750567835    1.1787015659   -3.2619458306
H        3.0551218845   -0.1585885524   -3.0724283431
H        4.8920596350    0.7468136515    0.7007040465
H        5.2131496228    0.3151572838   -4.2427641816
H        7.0699085234    1.2199236975   -0.4672422985
H       -2.4371816235   -1.5174870632   -0.2457722677
H       -1.4964401064   -1.3592637858    1.9529833509
H       -1.7821339685   -1.1567515738   -2.6725955954
H       -0.0761082999   -1.0641305173   -2.8988433643
H        8.2888862217    3.3731886734   -3.1594168714
H        7.7535882261    2.9189036653   -4.6851173755
29   
Generated by ForceBalance from scan.xyz: Frame 10 of 10
C        3.1212616539    0.1340023910   -2.1310495010
C        4.1755620576    0.5591358584    0.0202533607
C        4.3372171007    0.3453115197   -2.7678740042
C        5.4000693063    0.7673382895   -0.6124142508
C        3.0282710625    0.2377543048   -0.7260776391
C       -0.3159401589   -0.5329136458   -0.0003863468
C        5.4669409117    0.6642025759   -2.0030519355
C       -1.4829329587   -1.0146345022   -0.6545017455
C       -0.6997836807   -0.6052333877    1.5414501663
N        1.8509308732    0.0493314886    0.0269161753
N        0.8497383928   -0.3552390707   -0.6624608269
N       -2.4526339676   -0.8403590480    0.3687857850
N       -1.6399831089   -1.7040045034    1.3610763281
N       -1.7154702291   -1.3818110070   -1.9222934979
N        6.8737489384    2.5467786041   -3.3811593226
O       -0.3335950276   -0.0873366527    2.5588232706
O        8.0856074546    0.8880343661   -1.8164980561
O        7.0722869147    0.1261900610   -4.0481948317
S        7.0258352126    0.9416484048   -2.8299565947
H        2.2342414238   -0.1124860860   -2.7038200970
H        4.0834989070    0.6312202329    1.0998169389
H        4.4247688692    0.2573711343   -3.8464626584
H        6.2955638351    0.9923720047   -0.0422455546
H       -3.2775684798   -1.4219493047    0.1651960787
H       -2.2236887666   -1.7165957674    2.2138931447
H       -2.6506525196   -1.3376522500   -2.3076113121
H       -0.9436694270   -1.2504691275   -2.5690642056
H        7.3806558578    3.1744267865   -2.7575269322
H        7.2560738439    2.5950562897   -4.3257479724
