28   
Generated by ForceBalance from scan.xyz: Frame 1 of 24
C        0.1567458628   -3.7796862996    2.5879825056
C        0.7869925054   -3.0821695709    1.5514018266
C       -0.5622154357   -3.0720834520    3.5562880801
C        0.6987871822   -1.6893520421    1.4815573260
C       -0.6494604191   -1.6782576135    3.4834600372
C       -0.0229007274   -0.9715979074    2.4473499448
C       -0.3039788219    1.0397299171    0.9583605447
C        1.1934410187    1.1764845154    2.9846182516
C       -2.7291977114    0.4625841810    1.2003326336
C       -1.8495676656    1.4649036919   -0.8848810956
C       -0.0850246255    0.5483206077    2.4027257872
N       -1.5758385537    0.9489899313    0.4522267265
O        0.6365209249    1.4726216803    0.2863829352
H        0.2250311593   -4.8632564410    2.6401043181
H        1.3484823918   -3.6246898166    0.7948016815
H       -1.0553799723   -3.6033981524    4.3665627171
H        1.1911962551   -1.1526754345    0.6746152023
H       -1.2084744133   -1.1329972522    4.2419882811
H        1.0423157617    2.2444838881    3.1736287082
H        1.4611433231    0.6875665607    3.9253345376
H        2.0165157753    1.0890057945    2.2735409072
H       -3.2203438505    1.2646193787    1.7691910981
H       -3.4577533065    0.0567697593    0.4928086227
H       -2.4546992767   -0.3440774419    1.8791221905
H       -2.2404142629    0.6679134878   -1.5291206756
H       -2.5919649858    2.2717757738   -0.8390851126
H       -0.9240987047    1.8499361633   -1.3091975084
H       -0.9349271108    0.8844302950    3.0053896554
28   
Generated by ForceBalance from scan.xyz: Frame 2 of 24
C        0.1548745554   -3.7800436158    2.5683181771
C        0.7986268745   -3.0751656540    1.5451255175
C       -0.5764150591   -3.0793269855    3.5324139740
C        0.7115170218   -1.6818256423    1.4839976152
C       -0.6623272679   -1.6849437754    3.4688942445
C       -0.0222455798   -0.9710529927    2.4459662422
C       -0.3005667944    1.0419076233    0.9660479943
C        1.1938441404    1.1825042477    3.0041414062
C       -2.7290256865    0.4778767348    1.2183715526
C       -1.8515166563    1.4733792289   -0.8709918081
C       -0.0825462938    0.5488935106    2.4127133416
N       -1.5758073111    0.9610984536    0.4672982326
O        0.6395657511    1.4643745149    0.2869663581
H        0.2222664370   -4.8639835037    2.6134263835
H        1.3697882802   -3.6122845107    0.7919048078
H       -1.0801792968   -3.6163776577    4.3323322202
H        1.2143132201   -1.1391748804    0.6876295433
H       -1.2301445025   -1.1449576473    4.2245836813
H        0.9689902872    2.1707478939    3.4200235844
H        1.6041055592    0.5584108383    3.8015278792
H        1.9372752238    1.3305313533    2.2190123977
H       -3.2055595659    1.2769864621    1.8033907175
H       -3.4682699638    0.0924338073    0.5107368167
H       -2.4594455287   -0.3428304363    1.8823140380
H       -2.2376162290    0.6735849741   -1.5147087675
H       -2.5983693875    2.2759988179   -0.8258729811
H       -0.9280644154    1.8626962189   -1.2955902034
H       -0.9402828477    0.8855792494    3.0025219553
28   
Generated by ForceBalance from scan.xyz: Frame 3 of 24
C        0.3400664919   -3.8046121662    2.2653887979
C        0.9144458389   -3.0014038360    1.2737546406
C       -0.3763072052   -3.2065269597    3.3066190959
C        0.7729188790   -1.6120379383    1.3208220190
C       -0.5164441494   -1.8156575008    3.3503980414
C        0.0536845727   -1.0029065958    2.3604927265
C       -0.3569724165    1.0952559517    1.0441700244
C        1.2104926574    1.1551268417    3.0470657573
C       -2.7463658167    0.3965089923    1.3381513380
C       -1.9898505462    1.5618588669   -0.7099491550
C       -0.0630265153    0.5126471298    2.4444708250
N       -1.6428005584    0.9779560802    0.5816994577
O        0.5337059455    1.6141843331    0.3653946335
H        0.4495891814   -4.8853360285    2.2266241167
H        1.4735858408   -3.4583338613    0.4609331646
H       -0.8263435888   -3.8203264635    4.0830334906
H        1.2229570512   -0.9928656845    0.5490680967
H       -1.0723005339   -1.3558961087    4.1656218275
H        0.9411542117    1.9298394667    3.7724088194
H        1.8229059292    0.4105002840    3.5600290810
H        1.7962245761    1.6326788153    2.2597013146
H       -3.2260691752    1.1311012322    2.0000448184
H       -3.5001230378    0.0374838400    0.6321461974
H       -2.4211953557   -0.4606763550    1.9269185208
H       -2.3702502318    0.7887045147   -1.3884978464
H       -2.7640539548    2.3296738443   -0.5866621854
H       -1.0991236958    2.0140094448   -1.1420657902
H       -0.9143992025    0.7638550136    3.0832545954
28   
Generated by ForceBalance from scan.xyz: Frame 4 of 24
C        0.3178564728   -3.7946254267    2.2877134367
C        0.8882716914   -3.0000382101    1.2866465988
C       -0.3877009046   -3.1868688385    3.3304959484
C        0.7534208550   -1.6100080894    1.3271509177
C       -0.5224355655   -1.7950671231    3.3673012301
C        0.0444270392   -0.9913883652    2.3684547871
C       -0.3561526154    1.0999405334    1.0413123521
C        1.2098269104    1.1636496553    3.0543456983
C       -2.7439173782    0.3933529489    1.3234165685
C       -1.9783891175    1.5442422312   -0.7292394082
C       -0.0662560720    0.5265710414    2.4437830537
N       -1.6372093060    0.9706208826    0.5686371203
O        0.5368637881    1.6218645224    0.3678410294
H        0.4222678364   -4.8760402354    2.2547290723
H        1.4388171656   -3.4641993967    0.4720436008
H       -0.8342203038   -3.7939994104    4.1141322598
H        1.2014579655   -0.9973347324    0.5489505929
H       -1.0710469242   -1.3283233252    4.1835084175
H        0.9735573810    1.6885004534    3.9846276298
H        1.9579072635    0.4011392593    3.2820457988
H        1.6522667994    1.8716220061    2.3515681140
H       -3.2354626650    1.1355974216    1.9678914841
H       -3.4878009926    0.0165834705    0.6160884166
H       -2.4184368248   -0.4512065209    1.9297280114
H       -2.3520710386    0.7647834864   -1.4042956637
H       -2.7560996201    2.3101284748   -0.6162112280
H       -1.0868430164    1.9966329920   -1.1593396039
H       -0.9154246840    0.7643603248    3.0904798036
28   
Generated by ForceBalance from scan.xyz: Frame 5 of 24
C        0.3054983484   -3.7904486115    2.3186921251
C        0.8720151358   -3.0023596937    1.3100610459
C       -0.3942903278   -3.1736669307    3.3597798416
C        0.7400068213   -1.6120399598    1.3413951719
C       -0.5280683901   -1.7813662067    3.3874927775
C        0.0356650164   -0.9852850440    2.3811619991
C       -0.3596364205    1.1019203169    1.0431422462
C        1.2011419781    1.1649289513    3.0549579084
C       -2.7492502176    0.3961994819    1.3078648026
C       -1.9667491761    1.5411420001   -0.7417370290
C       -0.0761669751    0.5348612077    2.4451939189
N       -1.6366208241    0.9708966579    0.5602567135
O        0.5400917836    1.6221399061    0.3770094760
H        0.4085235116   -4.8722087717    2.2926311421
H        1.4181410031   -3.4727053455    0.4960579177
H       -0.8378142041   -3.7745452551    4.1498707365
H        1.1863604558   -1.0053857424    0.5573863675
H       -1.0740166708   -1.3089056726    4.2023089492
H        1.0487098656    1.4039442372    4.1109080161
H        2.0429065149    0.4715213666    2.9868473515
H        1.4904418375    2.0613707863    2.5037332673
H       -3.2523712248    1.1432803732    1.9376662221
H       -3.4824918285    0.0065627844    0.5962668062
H       -2.4261744720   -0.4390815148    1.9280221617
H       -2.3320663646    0.7596174383   -1.4190304597
H       -2.7473096885    2.3053758568   -0.6376004354
H       -1.0720915990    1.9948997891   -1.1640601168
H       -0.9194394335    0.7584737069    3.1052737298
28   
Generated by ForceBalance from scan.xyz: Frame 6 of 24
C        0.3062996440   -3.7903870259    2.3305336035
C        0.8686240373   -3.0063645741    1.3163409587
C       -0.3897325898   -3.1709702923    3.3725506606
C        0.7364290450   -1.6160401886    1.3429804856
C       -0.5235025133   -1.7785769677    3.3943156894
C        0.0355554185   -0.9858429289    2.3828670074
C       -0.3573047449    1.1034545069    1.0403362375
C        1.2002555537    1.1568056557    3.0416663316
C       -2.7456259320    0.3966987181    1.2945900166
C       -1.9566116265    1.5481472928   -0.7504719844
C       -0.0784899192    0.5345762141    2.4402084631
N       -1.6316007336    0.9727916143    0.5503949815
O        0.5463303677    1.6273639149    0.3822871117
H        0.4097526310   -4.8721760156    2.3079892980
H        1.4116518855   -3.4798906960    0.5021101203
H       -0.8296960521   -3.7690692522    4.1667462757
H        1.1792248955   -1.0121721517    0.5547399163
H       -1.0671662682   -1.3030570602    4.2089114271
H        1.1567029319    1.1371560596    4.1341322928
H        2.0818973928    0.5932333943    2.7266867983
H        1.3450226273    2.1776060331    2.6817980046
H       -3.2497349655    1.1423777454    1.9252906189
H       -3.4776901029    0.0084321392    0.5810580052
H       -2.4231103679   -0.4396054953    1.9138491559
H       -2.3225874763    0.7698681577   -1.4311169311
H       -2.7347898952    2.3149058954   -0.6466367253
H       -1.0591152687    2.0001993962   -1.1688175080
H       -0.9158292769    0.7577113798    3.1090597742
28   
Generated by ForceBalance from scan.xyz: Frame 7 of 24
C        0.3004256788   -3.7916359789    2.3631418553
C        0.8674996844   -3.0151437634    1.3460202424
C       -0.4007732805   -3.1649691341    3.3975409121
C        0.7345150171   -1.6245951392    1.3622337970
C       -0.5346860818   -1.7726700982    3.4091686030
C        0.0287437940   -0.9871893404    2.3942621514
C       -0.3574278897    1.0981149363    1.0370618278
C        1.1914398353    1.1559624175    3.0310610742
C       -2.7502869865    0.4039078446    1.2862063236
C       -1.9521588349    1.5560017189   -0.7546501755
C       -0.0856677501    0.5325065764    2.4394840356
N       -1.6325444837    0.9777071236    0.5460659697
O        0.5523269486    1.6134396382    0.3807618913
H        0.4040323440   -4.8735552414    2.3488833028
H        1.4146440850   -3.4944276169    0.5379476008
H       -0.8444454110   -3.7577142991    4.1936768288
H        1.1797578773   -1.0263288694    0.5711372435
H       -1.0819093987   -1.2912435277    4.2179250207
H        1.2575330848    0.9303922332    4.0994813225
H        2.0768901137    0.7509195518    2.5362363929
H        1.2078695535    2.2375764613    2.8742771159
H       -3.2584107854    1.1517140469    1.9112049802
H       -3.4783548868    0.0119642210    0.5704677235
H       -2.4304053215   -0.4294896472    1.9107218680
H       -2.3171961417    0.7799389517   -1.4384010684
H       -2.7294002486    2.3237965399   -0.6516280233
H       -1.0523626474    2.0072087107   -1.1690333910
H       -0.9220474559    0.7722064903    3.1044599402
28   
Generated by ForceBalance from scan.xyz: Frame 8 of 24
C        0.2937432369   -3.7965481596    2.3855657201
C        0.8699304113   -3.0267954948    1.3686720343
C       -0.4157930700   -3.1631673340    3.4103887264
C        0.7377669791   -1.6358622436    1.3746650114
C       -0.5477031851   -1.7708327004    3.4124757688
C        0.0245625178   -0.9918972694    2.3971970782
C       -0.3556016946    1.0861423543    1.0249802883
C        1.1871779443    1.1563477959    3.0184147652
C       -2.7532764556    0.4108531392    1.2831245766
C       -1.9530244626    1.5532486385   -0.7622978362
C       -0.0872524712    0.5265037618    2.4328008212
N       -1.6340542680    0.9774770215    0.5396952184
O        0.5562626972    1.5884132333    0.3616719263
H        0.3965296143   -4.8786240374    2.3787489414
H        1.4235927486   -3.5115490964    0.5683493539
H       -0.8669384763   -3.7507691156    4.2061529809
H        1.1888061319   -1.0429576799    0.5829347473
H       -1.1001236128   -1.2835895010    4.2141292023
H        1.3645652874    0.7619348949    4.0237754564
H        2.0508858532    0.9264896851    2.3921789774
H        1.0934111719    2.2449125902    3.0734844587
H       -3.2570568120    1.1624648598    1.9070999478
H       -3.4843775614    0.0205784605    0.5695351072
H       -2.4364203812   -0.4225971379    1.9091720462
H       -2.3212060704    0.7767634028   -1.4439467322
H       -2.7277005797    2.3237405054   -0.6603726785
H       -1.0520666470    2.0002804238   -1.1786965970
H       -0.9262679600    0.7888731369    3.0858254749
28   
Generated by ForceBalance from scan.xyz: Frame 9 of 24
C        0.2864226235   -3.8005931674    2.4030679742
C        0.8741304203   -3.0374313810    1.3879868043
C       -0.4317826135   -3.1600379453    3.4175165237
C        0.7445234582   -1.6460873931    1.3851410226
C       -0.5603752862   -1.7675370178    3.4117935273
C        0.0233998259   -0.9952865476    2.3977211963
C       -0.3508476742    1.0719228180    1.0102628176
C        1.1897920839    1.1616349515    3.0069508493
C       -2.7525443603    0.4203065000    1.2830429458
C       -1.9515700779    1.5389636218   -0.7760032401
C       -0.0834144033    0.5223162308    2.4253322657
N       -1.6324871315    0.9738891274    0.5309203101
O        0.5624821515    1.5568660554    0.3365059933
H        0.3868315462   -4.8829170652    2.4030188983
H        1.4346872196   -3.5274934798    0.5957392114
H       -0.8922285542   -3.7425898648    4.2116662009
H        1.2036455938   -1.0583264140    0.5943443802
H       -1.1184046567   -1.2747339990    4.2060872730
H        1.4876555724    0.6253431191    3.9133019311
H        2.0062172077    1.1212964503    2.2847413353
H        1.0101197757    2.2066286399    3.2786162608
H       -3.2452727810    1.1783982523    1.9079654327
H       -3.4916720917    0.0356881784    0.5747578091
H       -2.4404452168   -0.4148177545    1.9093288413
H       -2.3248901953    0.7580604832   -1.4498129186
H       -2.7225158940    2.3137842836   -0.6792089085
H       -1.0496575158    1.9778997558   -1.1987264809
H       -0.9276334642    0.8059736928    3.0619046583
28   
Generated by ForceBalance from scan.xyz: Frame 10 of 24
C        0.2752521786   -3.8001835157    2.4338303932
C        0.8806048057   -3.0494255428    1.4199112536
C       -0.4532028359   -3.1468905057    3.4327595889
C        0.7573243874   -1.6575513249    1.4038952037
C       -0.5746888203   -1.7538098436    3.4138383519
C        0.0266203707   -0.9935422585    2.4009479589
C       -0.3364424761    1.0522576905    0.9879013798
C        1.2021052760    1.1736849733    2.9959380938
C       -2.7452488987    0.4310875765    1.2851366081
C       -1.9409568881    1.4998547956   -0.7983642122
C       -0.0715535888    0.5244722937    2.4146918497
N       -1.6219496405    0.9588325971    0.5187993839
O        0.5773467123    1.5113142664    0.2967141424
H        0.3700230802   -4.8829546473    2.4448538804
H        1.4492732586   -3.5490174209    0.6394483638
H       -0.9272746134   -3.7201563108    4.2256567253
H        1.2296911884   -1.0788215662    0.6144001674
H       -1.1398272287   -1.2513287173    4.1968727350
H        1.6347291539    0.5206560385    3.7597836352
H        1.9409553693    1.3403670445    2.2114071558
H        0.9662625068    2.1248241834    3.4838205285
H       -3.2186681375    1.2019516348    1.9092591540
H       -3.4974875405    0.0558645174    0.5858362301
H       -2.4431769555   -0.4059700262    1.9139421641
H       -2.3274472051    0.7094255978   -1.4533173404
H       -2.7016186413    2.2861935610   -0.7141724637
H       -1.0358840756    1.9182280745   -1.2348550563
H       -0.9224371366    0.8227893133    3.0342250658
28   
Generated by ForceBalance from scan.xyz: Frame 11 of 24
C        0.2590342000   -3.7929849886    2.4317849019
C        0.8677495512   -3.0426264121    1.4193896280
C       -0.4666772116   -3.1386945118    3.4318827002
C        0.7515004135   -1.6502645312    1.4046792059
C       -0.5820192870   -1.7449424246    3.4148419520
C        0.0231235320   -0.9858508877    2.4034031020
C       -0.3327299767    1.0586629071    0.9921631226
C        1.2097743472    1.1803240226    3.0105336316
C       -2.7406245532    0.4270178826    1.2843592312
C       -1.9337880690    1.4863648197   -0.8017568929
C       -0.0674054920    0.5333912704    2.4206026298
N       -1.6161550941    0.9552376966    0.5199282878
O        0.5788900041    1.5227720015    0.3015285789
H        0.3492648741   -4.8761553632    2.4406819495
H        1.4342100183   -3.5435387615    0.6381775135
H       -0.9432809688   -3.7110960121    4.2238962063
H        1.2276173014   -1.0721705363    0.6168756944
H       -1.1449939965   -1.2412177059    4.1986281580
H        1.7920121949    0.4363432143    3.5606809583
H        1.8323094256    1.5892372624    2.2135698493
H        0.9537122328    1.9733908449    3.7197353558
H       -3.2210357018    1.2003192613    1.9000293176
H       -3.4872118916    0.0429258169    0.5838052223
H       -2.4380893420   -0.4038485609    1.9207752732
H       -2.3103192696    0.6889066432   -1.4540039740
H       -2.7019579814    2.2660674780   -0.7248624900
H       -1.0308187140    1.9106981398   -1.2366533532
H       -0.9211932796    0.8267879070    3.0377260373
28   
Generated by ForceBalance from scan.xyz: Frame 12 of 24
C        0.2357846392   -3.7850204197    2.4533850868
C        0.8365121376   -3.0458610489    1.4278456806
C       -0.4726455238   -3.1182210346    3.4573707274
C        0.7295825742   -1.6530149710    1.4045913466
C       -0.5795394789   -1.7237472348    3.4307093402
C        0.0178752233   -0.9757314095    2.4067863370
C       -0.3257059246    1.0619957009    0.9838089842
C        1.2185246752    1.1846388154    3.0110770381
C       -2.7310292935    0.4155273597    1.2652959367
C       -1.9173833968    1.4594526344   -0.8251007848
C       -0.0631678320    0.5459204937    2.4139320627
N       -1.6037581227    0.9386839341    0.5016802169
O        0.5851893800    1.5353934974    0.2984458213
H        0.3190500104   -4.8686639578    2.4692263919
H        1.3895454687   -3.5561280675    0.6430674794
H       -0.9428384498   -3.6812407612    4.2598695000
H        1.2012315042   -1.0841888551    0.6072817525
H       -1.1304179165   -1.2108881378    4.2171695517
H        1.9416435905    0.4166656829    3.2949413395
H        1.6923523910    1.8389029075    2.2775483752
H        0.9813814059    1.7647932139    3.9076231422
H       -3.2209118903    1.1958783920    1.8644329302
H       -3.4695028033    0.0154159579    0.5650600690
H       -2.4285619282   -0.4029267927    1.9174038707
H       -2.2901942714    0.6561057021   -1.4721460136
H       -2.6872527452    2.2384243563   -0.7573631707
H       -1.0137117710    1.8822943103   -1.2599359400
H       -0.9147059664    0.8298203187    3.0385386838
28   
Generated by ForceBalance from scan.xyz: Frame 13 of 24
C        0.2195055089   -3.7798512812    2.4771609141
C        0.8112633672   -3.0494250718    1.4400379187
C       -0.4752722209   -3.1033342855    3.4839664332
C        0.7090843263   -1.6565469681    1.4090524728
C       -0.5785994965   -1.7086373952    3.4487603403
C        0.0100492564   -0.9694906452    2.4136640081
C       -0.3247220893    1.0655329316    0.9813136765
C        1.2163877685    1.1809688883    3.0087449128
C       -2.7294472766    0.4113647105    1.2471345980
C       -1.9038623583    1.4509795105   -0.8405327345
C       -0.0681540023    0.5541211496    2.4102728831
N       -1.5981973721    0.9336700720    0.4892230305
O        0.5904335505    1.5430173822    0.3044495619
H        0.2992949916   -4.8636475451    2.4995228705
H        1.3537683885   -3.5667731561    0.6525540619
H       -0.9381918683   -3.6591232476    4.2956585925
H        1.1749432292   -1.0948637839    0.6031846419
H       -1.1205451512   -1.1890798646    4.2371229272
H        2.0459922095    0.4714594476    3.0049635885
H        1.5221889966    2.0498881005    2.4226796919
H        1.0371542116    1.5080905572    4.0370431409
H       -3.2314949064    1.1956710393    1.8309047888
H       -3.4574243965   -0.0040550304    0.5446884373
H       -2.4271844593   -0.3957865651    1.9131558071
H       -2.2713381709    0.6455531296   -1.4880432792
H       -2.6751783125    2.2291593031   -0.7799371525
H       -0.9978394350    1.8741490697   -1.2702933785
H       -0.9131449419    0.8260317818    3.0495851161
28   
Generated by ForceBalance from scan.xyz: Frame 14 of 24
C        0.2123981167   -3.7789794356    2.5073397303
C        0.8000488260   -3.0568103666    1.4621039540
C       -0.4774489693   -3.0952600499    3.5126506894
C        0.6989062946   -1.6641730067    1.4215045844
C       -0.5798854760   -1.7008213239    3.4673180696
C        0.0044676774   -0.9697752260    2.4241454011
C       -0.3249073489    1.0617067120    0.9801335483
C        1.2110614168    1.1740052312    2.9979174433
C       -2.7324089056    0.4163047789    1.2306468556
C       -1.8917330817    1.4571585674   -0.8506015070
C       -0.0748337665    0.5539683815    2.4088208849
N       -1.5959134177    0.9366439303    0.4799224325
O        0.5978307200    1.5339861776    0.3098226770
H        0.2915827819   -4.8626407171    2.5370809276
H        1.3386347042   -3.5804582766    0.6761026130
H       -0.9368639727   -3.6449576344    4.3304558485
H        1.1613068194   -1.1085749928    0.6093878346
H       -1.1185232453   -1.1751491954    4.2539647314
H        2.0931199193    0.5837770066    2.7440471483
H        1.3625022961    2.1818041636    2.6037424867
H        1.1236753390    1.2498170279    4.0860024434
H       -3.2481561712    1.2052891964    1.7959644009
H       -3.4480475441   -0.0164343061    0.5257216118
H       -2.4317290737   -0.3776635600    1.9128901814
H       -2.2539312956    0.6534748034   -1.5033279060
H       -2.6638978676    2.2347859099   -0.7937761365
H       -0.9825019170    1.8817810721   -1.2723176340
H       -0.9129997040    0.8273342293    3.0573687012
28   
Generated by ForceBalance from scan.xyz: Frame 15 of 24
C        0.2106555475   -3.7782690843    2.5376472740
C        0.8019681457   -3.0627492777    1.4900979941
C       -0.4844482453   -3.0893968640    3.5359990793
C        0.6987993691   -1.6704189516    1.4403690036
C       -0.5880951333   -1.6955527265    3.4815052891
C       -0.0004968284   -0.9706461773    2.4356624992
C       -0.3262663072    1.0564608587    0.9796431811
C        1.2011275845    1.1750051429    2.9884909594
C       -2.7386251690    0.4256906643    1.2226669405
C       -1.8882686392    1.4707464939   -0.8516520979
C       -0.0823308976    0.5519468090    2.4099624361
N       -1.5981668280    0.9453112251    0.4780109129
O        0.6032073224    1.5178576511    0.3108438933
H        0.2910013592   -4.8616176539    2.5747481645
H        1.3446647925   -3.5908405759    0.7099199814
H       -0.9466178002   -3.6347192236    4.3551822260
H        1.1628287536   -1.1194496172    0.6260889994
H       -1.1302701015   -1.1653421221    4.2626974166
H        2.0917790430    0.7326040637    2.5394327331
H        1.2274532671    2.2506195313    2.7928914025
H        1.2264825289    1.0243460432    4.0722672998
H       -3.2671811427    1.2182014804    1.7710210028
H       -3.4428916774   -0.0234834782    0.5162421784
H       -2.4389349351   -0.3558583772    1.9193382455
H       -2.2484833708    0.6700152730   -1.5092069778
H       -2.6603320031    2.2484296752   -0.7944915573
H       -0.9770504096    1.8962551267   -1.2682213754
H       -0.9190632204    0.8393819386    3.0548935340
28   
Generated by ForceBalance from scan.xyz: Frame 16 of 24
C        0.2025714639   -3.7863700115    2.5412266907
C        0.8104203512   -3.0683037524    1.5051311718
C       -0.5123653642   -3.0999245864    3.5273757591
C        0.7040549328   -1.6760942585    1.4542581588
C       -0.6185082055   -1.7064467558    3.4726302077
C       -0.0143431574   -0.9791260482    2.4377436571
C       -0.3391446920    1.0480278570    0.9786978435
C        1.1801326881    1.1717966633    2.9867687952
C       -2.7555526310    0.4350400313    1.2286517366
C       -1.9045515266    1.4838927112   -0.8446278818
C       -0.0986886582    0.5413854574    2.4112308734
N       -1.6151242203    0.9551884356    0.4839062728
O        0.5926853521    1.4977958049    0.3054639466
H        0.2851826506   -4.8695359675    2.5790359323
H        1.3685311779   -3.5943196712    0.7344966759
H       -0.9878192304   -3.6472718100    4.3375553824
H        1.1793916286   -1.1231673661    0.6479744477
H       -1.1750623681   -1.1779691479    4.2447943744
H        2.0484026319    0.8968531855    2.3855241215
H        1.1070598003    2.2633530064    2.9921571136
H        1.3336896351    0.8210552796    4.0120305263
H       -3.2704690306    1.2226581561    1.7966057793
H       -3.4708349218    0.0079832118    0.5197498176
H       -2.4593408787   -0.3633004632    1.9078256876
H       -2.2654572469    0.6854630980   -1.5046900287
H       -2.6756301238    2.2622644893   -0.7852991443
H       -0.9926390856    1.9090753550   -1.2600402566
H       -0.9401037583    0.8447694155    3.0428765753
28   
Generated by ForceBalance from scan.xyz: Frame 17 of 24
C        0.1948240110   -3.7844343138    2.5405524822
C        0.8054927503   -3.0657903151    1.5067387004
C       -0.5222179362   -3.0984871618    3.5257637060
C        0.6996876509   -1.6733188680    1.4563997223
C       -0.6269997183   -1.7050234549    3.4725011573
C       -0.0201621993   -0.9772213973    2.4392517428
C       -0.3381239414    1.0503168438    0.9795424893
C        1.1747855344    1.1767719379    2.9957985710
C       -2.7549690758    0.4368215586    1.2282589285
C       -1.9035071165    1.4848902945   -0.8447408452
C       -0.1012536321    0.5420662277    2.4154777781
N       -1.6136091230    0.9550955491    0.4834430842
O        0.5918748488    1.5017506569    0.3052189111
H        0.2766897514   -4.8676837633    2.5775438913
H        1.3653294560   -3.5913968467    0.7370881615
H       -1.0002145242   -3.6464323131    4.3340461875
H        1.1767627937   -1.1200846455    0.6514438856
H       -1.1842053613   -1.1766072421    4.2441521864
H        1.9937320648    1.0895228216    2.2792702430
H        1.0251085185    2.2394302848    3.2088789609
H        1.4661313032    0.6566277511    3.9129712854
H       -3.2673355831    1.2248109752    1.7980425478
H       -3.4718849730    0.0135853124    0.5187838791
H       -2.4610075534   -0.3639250878    1.9055716264
H       -2.2682825864    0.6875181939   -1.5038842985
H       -2.6719565136    2.2658189976   -0.7842309846
H       -0.9910619529    1.9071125052   -1.2618336163
H       -0.9505066003    0.8604186558    3.0287142324
28   
Generated by ForceBalance from scan.xyz: Frame 18 of 24
C        0.1949975810   -3.7852032345    2.5388078597
C        0.8222327937   -3.0644433426    1.5165259137
C       -0.5371528880   -3.1001969697    3.5135615459
C        0.7174733534   -1.6717662839    1.4675715431
C       -0.6407305650   -1.7065325989    3.4625947257
C       -0.0171255647   -0.9770074087    2.4405218364
C       -0.3305889848    1.0427566826    0.9774368358
C        1.1767805158    1.1849040019    3.0090793050
C       -2.7520175752    0.4537519840    1.2421029767
C       -1.8986245749    1.4739637472   -0.8451180849
C       -0.0959858708    0.5420742130    2.4194599673
N       -1.6088270616    0.9550395886    0.4876431038
O        0.5998861811    1.4770217182    0.2926574292
H        0.2756575916   -4.8685820465    2.5749734087
H        1.3940080289   -3.5884303916    0.7545721484
H       -1.0282851310   -3.6495774131    4.3129398464
H        1.2071028236   -1.1169261573    0.6714426963
H       -1.2088855733   -1.1795589597    4.2271338276
H        1.9178114693    1.3192264074    2.2182499436
H        0.9625461337    2.1651418933    3.4448154686
H        1.6159001366    0.5331888602    3.7690289289
H       -3.2359190378    1.2441990150    1.8328173615
H       -3.4896294367    0.0617598984    0.5362946212
H       -2.4688872264   -0.3663154703    1.9011129398
H       -2.2723915824    0.6732715002   -1.4950794177
H       -2.6598919130    2.2622062216   -0.7898129923
H       -0.9839746430    1.8838523979   -1.2694714237
H       -0.9540755763    0.8632700943    3.0174877635
28   
Generated by ForceBalance from scan.xyz: Frame 19 of 24
C        0.1845417738   -3.7815654918    2.5261967145
C        0.8116493913   -3.0611218362    1.5034678151
C       -0.5415565456   -3.0962417791    3.5051133568
C        0.7130597950   -1.6679709947    1.4577098534
C       -0.6390058078   -1.7019195937    3.4568559969
C       -0.0154571120   -0.9724489140    2.4347966122
C       -0.3218863674    1.0466354071    0.9752519275
C        1.1881080258    1.1895880439    3.0189731474
C       -2.7402606487    0.4469121067    1.2417657216
C       -1.8888165015    1.4520730177   -0.8538362548
C       -0.0866267247    0.5478992135    2.4186151469
N       -1.5975696623    0.9425442433    0.4824261806
O        0.6049338417    1.4895100097    0.2910541870
H        0.2607870618   -4.8653382180    2.5594589763
H        1.3786063587   -3.5858672646    0.7384275825
H       -1.0324980043   -3.6451625846    4.3049510412
H        1.2036068052   -1.1134763466    0.6618430392
H       -1.2024993647   -1.1742155790    4.2242835163
H        1.8187240391    1.5714160046    2.2133898444
H        0.9392960331    2.0182636363    3.6879618859
H        1.7718986693    0.4487282421    3.5704114173
H       -3.2151748813    1.2387531328    1.8378286941
H       -3.4843767782    0.0633288077    0.5384188435
H       -2.4596746623   -0.3776780065    1.8963096160
H       -2.2728396947    0.6483123114   -1.4937317256
H       -2.6424851807    2.2480152026   -0.8032770491
H       -0.9725483834    1.8498051021   -1.2860320920
H       -0.9477654528    0.8641701238    3.0140623690
28   
Generated by ForceBalance from scan.xyz: Frame 20 of 24
C        0.1718060445   -3.7764900282    2.5256872653
C        0.7924108757   -3.0613124775    1.4950305694
C       -0.5409411392   -3.0856824648    3.5102495064
C        0.7005344823   -1.6679880871    1.4479945659
C       -0.6327749444   -1.6908342298    3.4598585949
C       -0.0153951718   -0.9667459682    2.4305379650
C       -0.3179399346    1.0507932937    0.9696979873
C        1.1996389725    1.1902432550    3.0155797047
C       -2.7320871025    0.4387625057    1.2304526106
C       -1.8802157453    1.4372911355   -0.8687684921
C       -0.0802549838    0.5553558677    2.4113637550
N       -1.5897767478    0.9328824767    0.4697586992
O        0.6078705095    1.5040571119    0.2909286450
H        0.2430673635   -4.8605440278    2.5604380331
H        1.3488823279   -3.5903632212    0.7252572401
H       -1.0263541588   -3.6304827278    4.3162485468
H        1.1872935800   -1.1173997655    0.6469641589
H       -1.1871843473   -1.1591288751    4.2311876568
H        1.6855427033    1.8332490006    2.2796103557
H        0.9572727632    1.7837050315    3.9017130924
H        1.9152875860    0.4204817317    3.3129461636
H       -3.2110457555    1.2337078958    1.8191244727
H       -3.4731810862    0.0467523329    0.5285813055
H       -2.4497251081   -0.3793793476    1.8921514173
H       -2.2658724233    0.6311411633   -1.5045651218
H       -2.6324295635    2.2349441444   -0.8221473316
H       -0.9634595726    1.8316342540   -1.3029421177
H       -0.9369804657    0.8572222098    3.0203391120
28   
Generated by ForceBalance from scan.xyz: Frame 21 of 24
C        0.1682844985   -3.7741423292    2.5362439707
C        0.7846786154   -3.0641287522    1.4992053843
C       -0.5372851082   -3.0778294728    3.5217536821
C        0.6962676435   -1.6710095026    1.4471854913
C       -0.6267202546   -1.6828270357    3.4651900214
C       -0.0134239981   -0.9638495919    2.4302076951
C       -0.3136351962    1.0524466172    0.9653185979
C        1.2055488901    1.1848980063    3.0058628719
C       -2.7294706821    0.4402687869    1.2188861613
C       -1.8696002642    1.4375770287   -0.8769156006
C       -0.0783831472    0.5600333797    2.4040574241
N       -1.5841283866    0.9330973278    0.4622559536
O        0.6161965645    1.5046815249    0.2910443231
H        0.2375215145   -4.8581987207    2.5749177922
H        1.3355557566   -3.5975816188    0.7284529771
H       -1.0191295063   -3.6180163019    4.3329721910
H        1.1809829168   -1.1246172317    0.6419541756
H       -1.1771918980   -1.1472219216    4.2367251343
H        1.5311365595    2.0496121559    2.4260711185
H        1.0199927316    1.4943992136    4.0391889589
H        2.0202223427    0.4580889494    3.0344052770
H       -3.2157455776    1.2380059084    1.7977537548
H       -3.4642901294    0.0385078981    0.5157716078
H       -2.4474574101   -0.3707170958    1.8894097300
H       -2.2552281074    0.6320545440   -1.5135314228
H       -2.6199868871    2.2371397156   -0.8330027151
H       -0.9504155659    1.8295729826   -1.3082976482
H       -0.9278652913    0.8479479066    3.0301414598
28   
Generated by ForceBalance from scan.xyz: Frame 22 of 24
C        0.1703565705   -3.7709788085    2.5550639655
C        0.7819704833   -3.0648967838    1.5125054809
C       -0.5320061813   -3.0712866067    3.5404587185
C        0.6923755149   -1.6721335698    1.4546296358
C       -0.6229182608   -1.6766583030    3.4777844181
C       -0.0145293324   -0.9617528286    2.4372018963
C       -0.3132907601    1.0544538438    0.9662496795
C        1.2008943074    1.1797508128    2.9981016604
C       -2.7304833152    0.4471403831    1.2077702375
C       -1.8602152519    1.4522747929   -0.8806626077
C       -0.0833094623    0.5619517892    2.4033465806
N       -1.5819699424    0.9414068514    0.4573527107
O        0.6222865187    1.5042888967    0.2981858948
H        0.2408147999   -4.8548010074    2.5980645075
H        1.3302926468   -3.6013452261    0.7420259438
H       -1.0099532702   -3.6084373463    4.3559783040
H        1.1731530551   -1.1287102412    0.6449933714
H       -1.1714446283   -1.1381658986    4.2487481839
H        1.3764716905    2.1864307581    2.6149551864
H        1.1094004084    1.2210287884    4.0886660929
H        2.0719045255    0.5587260003    2.7790954512
H       -3.2245427324    1.2455092097    1.7791899875
H       -3.4584637478    0.0379629093    0.5016796613
H       -2.4491191740   -0.3588246894    1.8846224721
H       -2.2441140410    0.6504317023   -1.5229953407
H       -2.6093243833    2.2530763043   -0.8370235184
H       -0.9379927178    1.8444330294   -1.3056608175
H       -0.9269446874    0.8479142086    3.0391661237
28   
Generated by ForceBalance from scan.xyz: Frame 23 of 24
C        0.1633742228   -3.7717511741    2.5798471553
C        0.7755278857   -3.0726594876    1.5331310646
C       -0.5392993993   -3.0652747485    3.5604179308
C        0.6860862092   -1.6801402400    1.4660951445
C       -0.6296172341   -1.6712324290    3.4891782181
C       -0.0208074037   -0.9634428030    2.4438103539
C       -0.3121834890    1.0495557497    0.9604311932
C        1.1942524534    1.1759277577    2.9853528604
C       -2.7312488120    0.4463413840    1.1944289075
C       -1.8525688930    1.4515855345   -0.8906617881
C       -0.0885291795    0.5587680963    2.3992995460
N       -1.5796261857    0.9388217953    0.4475917710
O        0.6268838444    1.4983023279    0.2965999355
H        0.2333498746   -4.8553099540    2.6299093104
H        1.3241429274   -3.6142700833    0.7665010151
H       -1.0178843264   -3.5972095968    4.3789661497
H        1.1661715859   -1.1423276799    0.6523014910
H       -1.1781265410   -1.1273563524    4.2563826628
H        1.2444537185    2.2498492560    2.7908041485
H        1.2132406947    1.0060504258    4.0670320777
H        2.0817075135    0.7011919530    2.5625205404
H       -3.2229762574    1.2442825033    1.7684950504
H       -3.4600020494    0.0429436819    0.4858660216
H       -2.4537943205   -0.3632816509    1.8686887039
H       -2.2367190623    0.6513728224   -1.5348679770
H       -2.5994418229    2.2545815801   -0.8488143598
H       -0.9278211262    1.8414487569   -1.3123697870
H       -0.9306468414    0.8612978146    3.0304306497
28   
Generated by ForceBalance from scan.xyz: Frame 24 of 24
C        0.1617818763   -3.7756880817    2.5879419495
C        0.7805172151   -3.0783846007    1.5441564198
C       -0.5472731177   -3.0680311680    3.5633181648
C        0.6908514163   -1.6857938401    1.4747421190
C       -0.6367142861   -1.6742591150    3.4900846983
C       -0.0216092656   -0.9677333013    2.4472553015
C       -0.3076563269    1.0458646661    0.9602966076
C        1.1929252404    1.1749260150    2.9823467964
C       -2.7286718153    0.4522192122    1.1940319083
C       -1.8486899303    1.4609753835   -0.8887519248
C       -0.0873606456    0.5531483106    2.4008990523
N       -1.5762814167    0.9440362314    0.4480905362
O        0.6331473051    1.4898420630    0.2959412159
H        0.2313813679   -4.8591754068    2.6399739130
H        1.3341468599   -3.6210122322    0.7818633409
H       -1.0312280853   -3.5991029497    4.3792735963
H        1.1748895971   -1.1492833465    0.6625130725
H       -1.1892106983   -1.1291393984    4.2535276471
H        1.1344736614    2.2672286934    2.9732477778
H        1.3314734577    0.8341368473    4.0131326432
H        2.0640900629    0.8800629919    2.3947851794
H       -3.2222701659    1.2511525543    1.7651456140
H       -3.4557940657    0.0462885939    0.4851580992
H       -2.4517455694   -0.3553988240    1.8708189694
H       -2.2358286426    0.6636284559   -1.5347495578
H       -2.5932795091    2.2659305376   -0.8440057125
H       -0.9232448617    1.8491730478   -1.3103681062
H       -0.9319420074    0.8747219026    3.0194324995
