29   

C        1.8469756847   -3.6870196277   -0.9166712678
C        0.8860251562   -3.5536767739    0.0716233728
C        5.3048805854    1.3357920570    0.0208827459
C        5.9519177328    1.1930674454   -1.1968105824
C        2.7237521492   -2.6358054544   -1.1750110022
C        0.7899183895   -2.3550790358    0.7724410061
C        4.2214656061    0.5015850191    0.2725169736
C        5.5091650077    0.2254060301   -2.0992093334
C        2.6735102619   -1.4065386280   -0.4628430914
C        1.6469081890   -1.2660116751    0.5149330792
C        3.7831421112   -0.4293819808   -0.6924102924
C        1.1434284582    1.1629729018    0.3369656963
C        0.8128388001   -0.0244449793    2.5278583808
N        4.4623654186   -0.5743732244   -1.8512594762
N        1.3595198359   -0.0420113239    1.1602493348
H        1.9280561061   -4.6103531078   -1.4789284073
H        0.2035137316   -4.3687294342    0.2836853310
H        5.6392915494    2.0591827097    0.7572411960
H        6.8039618952    1.8114665410   -1.4489970034
H        3.4815980502   -2.8097748634   -1.9306860915
H       -0.0032844663   -2.2641529534    1.5014103649
H        3.7385894790    0.5576656653    1.2370287809
H        6.0342590695    0.1123703791   -3.0404329069
H        1.4042074143    0.9800989994   -0.7099012139
H        1.7543461284    1.9914936978    0.7075410120
H        0.0886666115    1.4531222610    0.3699202441
H        1.0850649352    0.9090119231    3.0299901441
H        1.2246919476   -0.8516135863    3.1148305315
H       -0.2782008360   -0.1101325902    2.5027743106
29   

C        1.8998048431   -3.7430749451   -0.8396889592
C        0.8980155044   -3.5805142327    0.1063058535
C        5.3486364353    1.2321578071    0.1044561635
C        5.8522081483    1.2590533043   -1.1884847333
C        2.7837509099   -2.6967479750   -1.0950804621
C        0.7712100821   -2.3613460001    0.7703517965
C        4.3043924563    0.3522182413    0.3642491991
C        5.3079138044    0.4130038835   -2.1578595741
C        2.6941234735   -1.4565919458   -0.4191014052
C        1.6369080243   -1.2790541895    0.5145080442
C        3.7783665851   -0.4592762850   -0.6577745888
C        1.2527077576    1.1743844677    0.2976266766
C        0.7379931875    0.0143074619    2.4661471956
N        4.3001609627   -0.4334765302   -1.9010752518
N        1.3605588693   -0.0373262960    1.1325266656
H        2.0029569664   -4.6821389355   -1.3714090864
H        0.2085448219   -4.3905964368    0.3148746742
H        5.7578566292    1.8649017424    0.8851835808
H        6.6670808355    1.9210883591   -1.4525355398
H        3.5757221274   -2.8639418855   -1.8171613809
H       -0.0469628697   -2.2521717589    1.4685395235
H        3.8980971478    0.2764905419    1.3642525632
H        5.7180566896    0.4388126887   -3.1606188441
H        1.4714241663    0.9543855251   -0.7517197639
H        1.9484989878    1.9422793067    0.6482198616
H        0.2327012867    1.5685239316    0.3426225170
H        0.9856280826    0.9585773301    2.9608569353
H        1.1134843119   -0.7995714414    3.0945728584
H       -0.3503137598   -0.0678440111    2.3818474624
29   

C        1.9347464173   -3.8062694422   -0.7647859058
C        0.8989740210   -3.6087532627    0.1403649185
C        5.4054337724    1.1144566837    0.1573745603
C        5.7562719537    1.3131103621   -1.1714455538
C        2.8320999805   -2.7711313350   -1.0211163881
C        0.7528453448   -2.3682826603    0.7638855260
C        4.4033480855    0.1875199714    0.4190419976
C        5.1041146562    0.5889827214   -2.1739063271
C        2.7177184600   -1.5199625320   -0.3814660989
C        1.6331032205   -1.2986721885    0.5061115081
C        3.7813441371   -0.5063832564   -0.6318730151
C        1.3411334565    1.1656525862    0.2408349121
C        0.6971282423    0.0526076913    2.3990984921
N        4.1380335550   -0.3043151350   -1.9143957323
N        1.3699326971   -0.0388141180    1.0926077962
H        2.0496351166   -4.7610016474   -1.2652547910
H        0.1981309603   -4.4091534620    0.3484163910
H        5.8933591198    1.6571397579    0.9603726489
H        6.5307213461    2.0202561554   -1.4401813471
H        3.6478629376   -2.9409243299   -1.7157928597
H       -0.0868986713   -2.2342356137    1.4315049507
H        4.0876991804   -0.0129873107    1.4351451891
H        5.3912438260    0.7542399603   -3.2057257631
H        1.5198159874    0.9133036388   -0.8088410225
H        2.0998220967    1.8828140017    0.5672168544
H        0.3553547830    1.6378195037    0.2957279298
H        0.9375974762    1.0056668792    2.8804001652
H        1.0382964468   -0.7498662070    3.0608418162
H       -0.3880678593   -0.0183895342    2.2746245342
29   

C        1.9543181577   -3.8370390524   -0.6794680622
C        0.8856912289   -3.5988036574    0.1785428674
C        5.5090614736    0.9853176390    0.1971083923
C        5.7009639378    1.3607504565   -1.1263959982
C        2.8699194804   -2.8181094551   -0.9379173322
C        0.7268938763   -2.3360060968    0.7549285827
C        4.5354414572    0.0263436017    0.4508678904
C        4.9230842761    0.7760157712   -2.1307845119
C        2.7372984111   -1.5498919047   -0.3437834735
C        1.6264035381   -1.2835485427    0.4945676865
C        3.7936252875   -0.5290809385   -0.6023128492
C        1.4096773487    1.1837601098    0.1759607276
C        0.6676103280    0.1262165672    2.3313083239
N        3.9851715762   -0.1488208023   -1.8783368177
N        1.3745674418   -0.0064084219    1.0468106142
H        2.0775552980   -4.8092051567   -1.1430264645
H        0.1698638936   -4.3857569272    0.3868836432
H        6.0919779901    1.4221059200    1.0013700337
H        6.4448802407    2.1019880638   -1.3894741042
H        3.7077449443   -3.0075147474   -1.6002856930
H       -0.1337853987   -2.1719413844    1.3883771665
H        4.3274572826   -0.3024889634    1.4611934904
H        5.0837046208    1.0819847121   -3.1579066231
H        1.5345508641    0.9007407753   -0.8736057907
H        2.2287597323    1.8474033086    0.4674332842
H        0.4634901582    1.7286617629    0.2496408110
H        0.9107346678    1.0861786650    2.7973695671
H        0.9774596836   -0.6658627749    3.0204198329
H       -0.4147522244    0.0697139311    2.1783675701
29   

C        2.0004720969   -3.8559343399   -0.6151784227
C        0.8993626682   -3.5986110921    0.1958676213
C        5.6687940549    0.8087585691    0.1961723274
C        5.6955489005    1.3906971094   -1.0648753094
C        2.9164839129   -2.8375343071   -0.8756279704
C        0.7116838683   -2.3194414066    0.7265791133
C        4.6990841695   -0.1596952191    0.4287040323
C        4.7643608179    0.9930953038   -2.0295517328
C        2.7479762081   -1.5525159347   -0.3314225761
C        1.6123390347   -1.2690391655    0.4639839547
C        3.8007642451   -0.5217667704   -0.5846063487
C        1.3733685329    1.1849631825    0.0897739117
C        0.6375534696    0.1685207821    2.2678407661
N        3.8312553497    0.0582504442   -1.7972424269
N        1.3482634239    0.0161556902    0.9878860985
H        2.1475578797   -4.8421378727   -1.0405816458
H        0.1826355482   -4.3844812535    0.4052249638
H        6.3725405627    1.0981342581    0.9697632950
H        6.4273923159    2.1502391238   -1.3088867679
H        3.7788798706   -3.0394337745   -1.5014592470
H       -0.1686171679   -2.1411951551    1.3285823346
H        4.6157607546   -0.6439376881    1.3931835406
H        4.7964745656    1.4593475062   -3.0072827415
H        1.4185605976    0.8714469945   -0.9574397688
H        2.2332961316    1.8225466635    0.3137091118
H        0.4544962930    1.7675458964    0.2072138907
H        0.8753510331    1.1378451043    2.7169911167
H        0.9497010783   -0.6096582817    2.9715918840
H       -0.4441497593    0.1039175320    2.1137072321
29   

C        2.0273856099   -3.8397603903   -0.5274650061
C        0.8935114214   -3.5634873516    0.2304013793
C        5.8729955116    0.5719550060    0.1204058291
C        5.7547165533    1.3691887794   -1.0106743829
C        2.9429489025   -2.8219359367   -0.7925396383
C        0.6771233751   -2.2681205236    0.7077806228
C        4.8742588314   -0.3694046663    0.3417168155
C        4.6597729869    1.1996136422   -1.8635922640
C        2.7384016235   -1.5168157545   -0.3114322746
C        1.5784643829   -1.2201666268    0.4409067150
C        3.8010539589   -0.4901630182   -0.5520688742
C        1.2020890033    1.1923957358   -0.0187829060
C        0.6260209907    0.2380093435    2.2329241774
N        3.7004877330    0.2889410562   -1.6428202385
N        1.2930226786    0.0708573637    0.9318835554
H        2.2003299076   -4.8404170917   -0.9069574571
H        0.1763857403   -4.3480921225    0.4431386308
H        6.7083750088    0.6787649895    0.8046384376
H        6.4997022672    2.1206884694   -1.2392333927
H        3.8317537304   -3.0407026186   -1.3740243699
H       -0.2224619132   -2.0736084604    1.2755698350
H        4.9050236092   -1.0177546686    1.2078052406
H        4.5816711260    1.8296852180   -2.7418118170
H        1.2107087823    0.8288422908   -1.0507265870
H        2.0332480072    1.8878193343    0.1278819891
H        0.2578599085    1.7274426993    0.1211669482
H        0.8773665792    1.2135003449    2.6607733448
H        0.9628124622   -0.5312038313    2.9351406635
H       -0.4601310413    0.1686786972    2.1167680080
29   

C        2.0642009432   -3.8292613740   -0.4317386819
C        0.8897761135   -3.5328154013    0.2524712539
C        6.0371381398    0.3721756586   -0.0079357135
C        5.8129329737    1.3454436169   -0.9724849968
C        2.9862344809   -2.8150166550   -0.6884861764
C        0.6439179241   -2.2224798978    0.6694601113
C        5.0187808035   -0.5473873503    0.2159306786
C        4.5999496501    1.3615501365   -1.6672838960
C        2.7485589061   -1.4906342462   -0.2763564969
C        1.5531230807   -1.1799265895    0.4123991245
C        3.8190005471   -0.4725845785   -0.5076524980
C        0.9834239487    1.1660016640   -0.1340500589
C        0.6356429408    0.2971158887    2.1956516392
N        3.6235733801    0.4697050989   -1.4463316166
N        1.2374186791    0.1151854612    0.8655955511
H        2.2630919202   -4.8427980457   -0.7610784499
H        0.1664302878   -4.3137009446    0.4577143188
H        6.9671538919    0.3305942270    0.5495357889
H        6.5659565643    2.0912331843   -1.1931526629
H        3.9046642867   -3.0525416836   -1.2138256025
H       -0.2812942648   -2.0086323344    1.1873765030
H        5.1330673009   -1.3279204114    0.9568911363
H        4.4408355342    2.1258406645   -2.4188694738
H        1.0382424830    0.7596274067   -1.1486997659
H        1.7124583263    1.9747797770   -0.0312849259
H       -0.0241369741    1.5727923594   -0.0043862977
H        0.9107650015    1.2759879240    2.6003429938
H        1.0025450197   -0.4673529656    2.8879033939
H       -0.4550385610    0.2287422347    2.1338369558
29   

C        0.8186400567   -2.5525299441   -2.1797810739
C       -0.1023601632   -2.6013591936   -1.1403178673
C        5.8827824016    0.0024535574   -1.0023114509
C        5.6900462398    1.3653942562   -0.8143064457
C        1.9853909021   -1.8058202042   -2.0296617948
C        0.1590867879   -1.9196186149    0.0500596310
C        4.7520554686   -0.8067388543   -1.0008468924
C        4.3950287885    1.8639789480   -0.6388678181
C        2.2570034697   -1.0996067603   -0.8417958165
C        1.3395936364   -1.1733106599    0.2405221439
C        3.4803988700   -0.2467082653   -0.8034165243
C        0.4468030682   -0.1267218510    2.3387132012
C        2.9050621457   -0.6184937008    2.1362158260
N        3.3098066464    1.0782095624   -0.6385770791
N        1.5708438722   -0.5972125260    1.5132137508
H        0.6247473293   -3.0816887250   -3.1058740409
H       -1.0160428168   -3.1745623231   -1.2485539771
H        6.8745496335   -0.4138257172   -1.1464894672
H        6.5302174902    2.0481539525   -0.8060755289
H        2.6821881688   -1.7474933088   -2.8583714574
H       -0.5621205954   -2.0064444756    0.8507662765
H        4.8388794328   -1.8759666559   -1.1444535121
H        4.2613284876    2.9302052122   -0.4987205750
H       -0.3364010502    0.3038776343    1.7066636213
H        0.7837617827    0.6549413117    3.0266729916
H        0.0297712991   -0.9549056020    2.9201695479
H        3.3409435395    0.3846636663    2.1429763162
H        3.5758006030   -1.3015672603    1.6075658171
H        2.8275273835   -0.9823993805    3.1652717758
29   

C        0.9594126117   -2.6095730530   -2.1190322974
C       -0.0115734626   -2.6078999519   -1.1268417226
C        5.9471012990    0.0598382567   -1.1224917868
C        5.7679016237    1.3792336189   -0.7284712578
C        2.1290000439   -1.8748407466   -1.9383421429
C        0.2035924949   -1.8900609017    0.0501698131
C        4.8267192902   -0.7638054421   -1.1227016715
C        4.4960272630    1.8220548578   -0.3540224699
C        2.3613215605   -1.1280225333   -0.7636400196
C        1.3849277220   -1.1540145169    0.2749929348
C        3.5733740465   -0.2628370353   -0.7303870079
C        0.4091207890   -0.0635654363    2.3179565041
C        2.8689871047   -0.5767782741    2.2298653718
N        3.4211507261    1.0226625513   -0.3550344380
N        1.5619524474   -0.5602502182    1.5498339846
H        0.8006654552   -3.1660484021   -3.0357891582
H       -0.9286966551   -3.1701497371   -1.2605213305
H        6.9218714794   -0.3136444734   -1.4191530603
H        6.6009733311    2.0704096200   -0.7092152048
H        2.8534448208   -1.8539023701   -2.7445139986
H       -0.5568371022   -1.9423067221    0.8167882673
H        4.9145330132   -1.8014743485   -1.4167716144
H        4.3717638147    2.8549247185   -0.0505753177
H       -0.3481418773    0.3515137075    1.6453736476
H        0.7232796419    0.7360506007    2.9960110193
H       -0.0323718153   -0.8740653341    2.9063009490
H        3.3103302868    0.4242637151    2.2384310401
H        3.5574898938   -1.2715394008    1.7398274611
H        2.7470717696   -0.9166015440    3.2629000021
29   

C        1.0227154490   -2.7094827780   -2.0542127261
C        0.0170773219   -2.6446931232   -1.1019341357
C        5.9348642674    0.1204160207   -1.2948931113
C        5.7832080773    1.3826707907   -0.7395263635
C        2.1976897441   -1.9855135014   -1.8665058008
C        0.2043419124   -1.8765399134    0.0457273664
C        4.8288252219   -0.7224885164   -1.2789870379
C        4.5528137273    1.7496827866   -0.1903911427
C        2.4117910602   -1.1865116099   -0.7181655487
C        1.3902951325   -1.1512207640    0.2807733150
C        3.6066856804   -0.2966030312   -0.7211571715
C        0.3683066137    0.0312421457    2.2504159088
C        2.7954958156   -0.6260642508    2.2994689091
N        3.4927001344    0.9315758963   -0.1771672848
N        1.5309584823   -0.5343666874    1.5483499215
H        0.8851035094   -3.3032011717   -2.9508329554
H       -0.9052365576   -3.1965771153   -1.2429724341
H        6.8800835232   -0.1977534509   -1.7226592972
H        6.6066316307    2.0853753682   -0.7241253508
H        2.9306946191   -2.0127022448   -2.6636446686
H       -0.5825907780   -1.8828646608    0.7869469902
H        4.9176911987   -1.7203286474   -1.6863031168
H        4.4490156750    2.7372094220    0.2435907368
H       -0.3471518568    0.4456462095    1.5332348038
H        0.6855419105    0.8443891929    2.9106294427
H       -0.1246871756   -0.7406130325    2.8498135533
H        3.2550231885    0.3620302278    2.3980062249
H        3.5001767694   -1.2994507357    1.8024616125
H        2.6069260973   -1.0287771618    3.2992628046
29   

C        1.0739159948   -2.7958590191   -1.9588269017
C        0.0424567942   -2.6716296541   -1.0441519197
C        5.8987326375    0.2193533994   -1.4531891586
C        5.8005097337    1.4044605731   -0.7420737021
C        2.2519720282   -2.0762585077   -1.7748909077
C        0.2083062352   -1.8497821249    0.0663404826
C        4.8062985498   -0.6411777869   -1.4213859636
C        4.6362403349    1.6769767986   -0.0246410535
C        2.4550287211   -1.2195321700   -0.6608442599
C        1.3962359170   -1.1277420378    0.3014249714
C        3.6355797977   -0.3075149943   -0.7014551603
C        0.3306067830    0.1637581568    2.1781734829
C        2.7013170481   -0.6512076089    2.3888473636
N        3.5903264434    0.8419674762    0.0017265140
N        1.4982246127   -0.4785408087    1.5554133737
H        0.9534706057   -3.4311353712   -2.8290963830
H       -0.8828074971   -3.2187438760   -1.1845170346
H        6.7965674780   -0.0306172775   -2.0091101607
H        6.6162400522    2.1161172956   -0.7305826114
H        2.9833496934   -2.1605092072   -2.5671004761
H       -0.5986391225   -1.8121099459    0.7848293769
H        4.8888799865   -1.5819284553   -1.9450183956
H        4.5732473474    2.6022135820    0.5359627043
H       -0.3386036471    0.5668594785    1.4116827616
H        0.6523300910    0.9961979753    2.8115212082
H       -0.2163430140   -0.5589898190    2.7919123153
H        3.1811785654    0.3152573186    2.5710170158
H        3.4223303151   -1.3166226443    1.9043347352
H        2.4297051586   -1.0987976554    3.3496006417
29   

C        1.1237550285   -2.8959683973   -1.8596068440
C        0.0820348334   -2.7378600793   -0.9654309932
C        5.8013238791    0.3901468426   -1.6584796062
C        5.8312250295    1.4139441046   -0.7284712076
C        2.2939712282   -2.1580114882   -1.6996816666
C        0.2332241532   -1.8660041304    0.1054835706
C        4.7156133744   -0.4796079592   -1.6269764317
C        4.7934396396    1.5243675120    0.1926854426
C        2.4829041409   -1.2337196012   -0.6328496113
C        1.4110289171   -1.1211462592    0.3171637431
C        3.6679133062   -0.3207191881   -0.6821049408
C        0.3028834191    0.3173373921    2.0517879483
C        2.5597421109   -0.7052487416    2.4913077692
N        3.7549422636    0.6810903444    0.2162149382
N        1.4686948556   -0.4207953329    1.5429932998
H        1.0210559137   -3.5799688411   -2.6945508852
H       -0.8365319801   -3.3005193575   -1.0872164658
H        6.5974930923    0.2694435339   -2.3859330089
H        6.6481528854    2.1239034465   -0.7058442182
H        3.0273921146   -2.3160614313   -2.4748420650
H       -0.5780177484   -1.8027484220    0.8176929889
H        4.7266061094   -1.2756462609   -2.3524349642
H        4.8258959392    2.3250540431    0.9221609746
H       -0.3250641299    0.6602626528    1.2235810013
H        0.6316800449    1.1984730277    2.6111392644
H       -0.2918508093   -0.3231617639    2.7108274857
H        3.0636854514    0.2224598614    2.7795958978
H        3.2987249213   -1.3779008945    2.0447545062
H        2.1616666859   -1.1895308921    3.3880004588
29   

C        1.2198933442   -2.9915802612   -1.7876797544
C        0.2072717897   -2.8695501653   -0.8532433615
C        5.6113203166    0.6416411138   -1.9227827465
C        5.9273356672    1.3411912695   -0.7713106987
C        2.3516768442   -2.1851536554   -1.6911342576
C        0.3498553837   -1.9582960223    0.1870259241
C        4.5016603802   -0.1963780509   -1.8824800207
C        5.1291700528    1.1848146919    0.3593452210
C        2.5151548490   -1.2122444079   -0.6666934756
C        1.4848189032   -1.1357076651    0.3225339213
C        3.7300446921   -0.3439813381   -0.7017562832
C        0.3307782183    0.5097571579    1.7992773197
C        2.4069255879   -0.6795598274    2.5713457869
N        4.0663923503    0.3719312448    0.3884766887
N        1.4991243062   -0.3198367617    1.4694676524
H        1.1330711805   -3.7152499423   -2.5903386316
H       -0.6790889053   -3.4901722033   -0.9194023299
H        6.1998929614    0.7529477606   -2.8276365285
H        6.7762760700    2.0122149794   -0.7414823403
H        3.1088082210   -2.3582246357   -2.4425682011
H       -0.4342682621   -1.9050826146    0.9305455613
H        4.2395099684   -0.7004899433   -2.7992259870
H        5.3773345876    1.7432014563    1.2542682257
H       -0.2646813614    0.7079983866    0.9024885239
H        0.6574289972    1.4705897267    2.2082506329
H       -0.2998748519    0.0007172507    2.5351245262
H        2.9344949408    0.2089896213    2.9313751033
H        3.1502746333   -1.4103392827    2.2370441282
H        1.8422545769   -1.1232732638    3.3968307433
29   

C        1.2698814194   -3.0470799771   -1.7377463458
C        0.2727824814   -2.9578666672   -0.7784426896
C        5.4221267738    0.8492758467   -1.9378522230
C        5.9254315935    1.2981841319   -0.7271106637
C        2.3749273050   -2.2007914727   -1.6656037562
C        0.3971263591   -2.0290677075    0.2520706260
C        4.3082702925    0.0175814703   -1.8985485629
C        5.3033972953    0.9083896166    0.4594032709
C        2.5180303704   -1.2332908567   -0.6401466605
C        1.5030560572   -1.1656709845    0.3552134321
C        3.7231937656   -0.3583729363   -0.6691720454
C        0.3240181156    0.5798815366    1.6696992001
C        2.3086081993   -0.6302795696    2.6225763356
N        4.2338275198    0.1031775503    0.4870872721
N        1.4950537617   -0.2805496933    1.4467563234
H        1.1922078259   -3.7757089232   -2.5367919284
H       -0.5912853101   -3.6109534748   -0.8234984746
H        5.8728237520    1.1436580372   -2.8800329563
H        6.7880703768    1.9511776563   -0.6908765338
H        3.1407018043   -2.3227093152   -2.4217142275
H       -0.3785304006   -1.9823742977    1.0050965588
H        3.8773670068   -0.3155890585   -2.8321232632
H        5.7019595220    1.2701255804    1.3999194873
H       -0.2284711596    0.7245147225    0.7358543552
H        0.6444658603    1.5620266941    2.0301050935
H       -0.3462065119    0.1262456676    2.4067639879
H        2.8641111328    0.2455315426    2.9711780185
H        3.0266127312   -1.4187866551    2.3753694723
H        1.6683045924   -0.9974597142    3.4303518641
29   

C        1.3298365056   -3.1290891182   -1.6663034981
C        0.3230245384   -3.0308086258   -0.7143845457
C        5.2634409281    1.0066380713   -1.8999868376
C        5.9128920300    1.2730270519   -0.7033414869
C        2.4231637903   -2.2658895975   -1.6052272394
C        0.4215233970   -2.0716134149    0.2935637233
C        4.1561803814    0.1670764977   -1.8510422905
C        5.4394220257    0.6988400834    0.4787550817
C        2.5402204025   -1.2863573189   -0.5942492660
C        1.5156377166   -1.1928646973    0.3818408038
C        3.7219663395   -0.3814695332   -0.6292212033
C        0.3138138198    0.5974780117    1.6062834784
C        2.3027068904   -0.5478714314    2.6250549740
N        4.3741048070   -0.1126235608    0.5161220552
N        1.4981954294   -0.2550453412    1.4276224677
H        1.2667730103   -3.8746100261   -2.4508831985
H       -0.5314471889   -3.6968998080   -0.7511497215
H        5.6016559139    1.4403088587   -2.8353978107
H        6.7792208358    1.9214715543   -0.6739388000
H        3.2013527630   -2.3675049463   -2.3530220597
H       -0.3637009094   -2.0106161656    1.0355272197
H        3.6086757775   -0.0535806689   -2.7576297092
H        5.9560605741    0.9156395454    1.4063176999
H       -0.2164244537    0.7190654492    0.6563749568
H        0.6161702366    1.5896402345    1.9548787038
H       -0.3698325423    0.1519449157    2.3358707985
H        2.8942508163    0.3282510824    2.9067271563
H        2.9853851051   -1.3830974097    2.4387877062
H        1.6517087401   -0.8275418218    3.4589745465
29   

C        1.3662823957   -3.1980213630   -1.6127104367
C        0.3277458620   -3.0620777023   -0.6980447385
C        5.1257084550    1.1398059182   -1.8134739103
C        5.9102460556    1.2322832440   -0.6720714684
C        2.4632850562   -2.3397449161   -1.5422797767
C        0.3968918646   -2.0699400844    0.2818465745
C        4.0206902030    0.2977920883   -1.7593756606
C        5.5683730635    0.4893224443    0.4613353385
C        2.5493869017   -1.3370278212   -0.5557260853
C        1.4956787001   -1.1978159683    0.3785327543
C        3.7216987453   -0.4154451732   -0.5864324380
C        0.2623192574    0.5980031112    1.5688562894
C        2.3248171474   -0.4255390755    2.5690218692
N        4.5030828741   -0.3228282442    0.5039589801
N        1.4713543077   -0.2192472759    1.3873244400
H        1.3232269675   -3.9662132085   -2.3764735430
H       -0.5296768676   -3.7238491911   -0.7430631901
H        5.3624582096    1.7031054307   -2.7101773779
H        6.7830037240    1.8723300917   -0.6490327237
H        3.2663935824   -2.4528057355   -2.2619954827
H       -0.4133791327   -1.9811608142    0.9932469990
H        3.3702849338    0.1926768289   -2.6178591455
H        6.1918707860    0.5697780315    1.3439959617
H       -0.2726083308    0.7042488122    0.6197336049
H        0.5361180370    1.5991029258    1.9157204608
H       -0.4057632798    0.1337708481    2.3011619981
H        2.9551224269    0.4519760706    2.7398751267
H        2.9682131825   -1.3010672185    2.4363467146
H        1.7067069824   -0.6028941690    3.4544370900
29   

C        1.4054534100   -3.2662806745   -1.5739862581
C        0.3276001953   -3.0811554716   -0.7141346910
C        4.9971472100    1.2842476666   -1.6889456312
C        5.9130653823    1.2009507528   -0.6487574389
C        2.5084266923   -2.4171574020   -1.4883454627
C        0.3640088529   -2.0514748476    0.2290994302
C        3.8963148548    0.4368444936   -1.6358889189
C        5.6989371801    0.2871916476    0.3873612521
C        2.5583084555   -1.3783464323   -0.5403298445
C        1.4700021642   -1.1892996477    0.3425913224
C        3.7321844934   -0.4523649052   -0.5630165356
C        0.1920625206    0.5834864867    1.5368967381
C        2.3829553682   -0.2459572756    2.4402413588
N        4.6351801115   -0.5277637429    0.4298529536
N        1.4340996943   -0.1735190514    1.3166641994
H        1.3873507819   -4.0638407064   -2.3080462246
H       -0.5349614275   -3.7351694154   -0.7723929145
H        5.1327456597    1.9820190880   -2.5088032133
H        6.7907317898    1.8344444613   -0.6307274833
H        3.3422090869   -2.5592866109   -2.1669566585
H       -0.4770071606   -1.9320099969    0.8987515493
H        3.1462143831    0.4570918170   -2.4157935803
H        6.4240265405    0.2321799835    1.1908241829
H       -0.3676902734    0.6783093066    0.6009835815
H        0.4262204696    1.5920177149    1.8914253015
H       -0.4357365136    0.0796579252    2.2785856929
H        3.0365219200    0.6309439761    2.4449853823
H        2.9959118237   -1.1501902009    2.3747920350
H        1.8394940621   -0.2935932565    3.3888359553
29   

C        1.4312439257   -3.3498706912   -1.5140917548
C        0.3204522056   -3.1140556162   -0.7097657834
C        4.8666193307    1.4338239358   -1.4672960455
C        5.9026864051    1.1664012862   -0.5818377450
C        2.5374210859   -2.5055139550   -1.4247972468
C        0.3285407531   -2.0423030624    0.1868833442
C        3.7698825067    0.5800287302   -1.4387173772
C        5.8048940391    0.0743681497    0.2859824570
C        2.5532663036   -1.4205297239   -0.5308131465
C        1.4388224997   -1.1851560542    0.3065367206
C        3.7324648196   -0.4984879779   -0.5440002479
C        0.1292357619    0.5682907838    1.5125403914
C        2.4364269729   -0.0600181544    2.2844316873
N        4.7432194702   -0.7445978075    0.3071445598
N        1.3946498660   -0.1338383604    1.2456356489
H        1.4361983662   -4.1825687539   -2.2082287194
H       -0.5449562980   -3.7638778666   -0.7724312154
H        4.9088979478    2.2741947776   -2.1524472539
H        6.7845298872    1.7938039148   -0.5551321977
H        3.3984560324   -2.6837286017   -2.0594705974
H       -0.5377217126   -1.8928591081    0.8167593673
H        2.9271902751    0.7368738767   -2.0995322408
H        6.6215508947   -0.1207222505    0.9710879599
H       -0.4584148711    0.6566293999    0.5932493376
H        0.3313803093    1.5799689925    1.8778640835
H       -0.4560354739    0.0282437323    2.2634177048
H        3.0789872405    0.8098598208    2.1220050329
H        3.0477697844   -0.9674381445    2.2869214669
H        1.9751631141    0.0145482901    3.2739291528
29   

C        1.4802524136   -3.4256571941   -1.4990826383
C        0.3414779379   -3.1534494405   -0.7470687178
C        4.7934006906    1.5542291452   -1.1857412193
C        5.9266848257    1.1171234571   -0.5117808721
C        2.5850654992   -2.5802366803   -1.4057547695
C        0.3215065674   -2.0476066505    0.1072319853
C        3.6950149011    0.7023905357   -1.2011055251
C        5.9187907097   -0.1326920845    0.1156640878
C        2.5690204850   -1.4542970481   -0.5644046727
C        1.4305544742   -1.1887652107    0.2332051341
C        3.7544909867   -0.5434834537   -0.5614832982
C        0.0907261233    0.5487930401    1.4400422015
C        2.4611880819    0.0681896062    2.1244999706
N        4.8546742695   -0.9487047579    0.0968684957
N        1.3724471095   -0.1130475413    1.1471884001
H        1.5087112583   -4.2879565198   -2.1554594154
H       -0.5229223357   -3.8041649067   -0.8141513963
H        4.7633997686    2.5207286539   -1.6780996900
H        6.8152439943    1.7337826881   -0.4645185269
H        3.4700926709   -2.7875812799   -1.9972706223
H       -0.5657918565   -1.8781974727    0.7014657705
H        2.7765449249    0.9869883080   -1.6981701183
H        6.8097513103   -0.4574086942    0.6401934882
H       -0.5150815214    0.6243053266    0.5314393221
H        0.2672657516    1.5645633156    1.8073536671
H       -0.4638073072   -0.0122555356    2.1988108716
H        3.0453951325    0.9616851789    1.8868060493
H        3.1224953887   -0.8032914113    2.1379958362
H        2.0470831265    0.1679015718    3.1325150114
29   

C        1.5057733176   -3.4732279970   -1.4386668764
C        0.3455203797   -3.1700329219   -0.7338459439
C        4.7633139110    1.6074373224   -0.9546599448
C        5.9630285375    1.0591621338   -0.5193462356
C        2.6092306541   -2.6265099450   -1.3448566787
C        0.3039788502   -2.0338656927    0.0782286922
C        3.6509511315    0.7740970889   -0.9663857536
C        6.0054334986   -0.2789701292   -0.1151244980
C        2.5725415070   -1.4650597727   -0.5519680131
C        1.4116272999   -1.1728724273    0.2061564846
C        3.7603927920   -0.5630052642   -0.5562964852
C        0.0475454604    0.5744373695    1.3751866141
C        2.4204374480    0.1375086627    2.0773652916
N        4.9277628051   -1.0771936326   -0.1290380705
N        1.3375115978   -0.0791928247    1.0993903022
H        1.5525482623   -4.3605199913   -2.0597192235
H       -0.5181119096   -3.8216209397   -0.8022727247
H        4.6940715601    2.6430701956   -1.2710189034
H        6.8656215462    1.6561471522   -0.4879355978
H        3.5105291085   -2.8592114751   -1.9016953322
H       -0.5994970079   -1.8454273412    0.6414046208
H        2.6831032463    1.1414555942   -1.2833533150
H        6.9488113977   -0.6904532208    0.2241633537
H       -0.5539762263    0.6308640872    0.4623572450
H        0.2117995857    1.5971041873    1.7287744907
H       -0.5055919491    0.0190714863    2.1391885271
H        2.9419879914    1.0761232027    1.8693660673
H        3.1416396438   -0.6850973823    2.0557048643
H        2.0074657870    0.1738815508    3.0901562906
29   

C        1.5874783505   -3.5222630572   -1.3961411826
C        0.3961051760   -3.2050803178   -0.7549493004
C        4.7874427326    1.6263037141   -0.7905860821
C        6.0205232072    1.0227316953   -0.5816843545
C        2.6822547144   -2.6679937538   -1.2771256130
C        0.3159501891   -2.0480257549    0.0220017049
C        3.6653618392    0.8064320049   -0.7654082562
C        6.0862644067   -0.3561012682   -0.3599396601
C        2.6133393498   -1.4811213530   -0.5192632552
C        1.4142511182   -1.1789612701    0.1763363394
C        3.7949077585   -0.5726548544   -0.5330450299
C       -0.0043705548    0.5725232860    1.2741478847
C        2.3323889276    0.1371988452    2.0876793155
N        4.9995270539   -1.1416617424   -0.3372071845
N        1.2982543478   -0.0788076451    1.0576340477
H        1.6653882562   -4.4252839730   -1.9908374576
H       -0.4616123434   -3.8619101840   -0.8444087415
H        4.7007471058    2.6931262946   -0.9687823545
H        6.9319384869    1.6069241645   -0.5910876567
H        3.6022867942   -2.9152746865   -1.7960319181
H       -0.6119981000   -1.8509986968    0.5406027522
H        2.6765047970    1.2178720884   -0.9240928678
H        7.0565077581   -0.8118398690   -0.2007593413
H       -0.5697742377    0.6153181175    0.3377974423
H        0.1417223655    1.5999046506    1.6219172203
H       -0.5851247891    0.0236957458    2.0222766294
H        2.8114821341    1.1108412869    1.9500238683
H        3.0982734328   -0.6434823730    2.0503213596
H        1.8805999901    0.0983969710    3.0837203700
29   

C        1.6287036379   -3.5454698606   -1.3102027238
C        0.4166721090   -3.2079204045   -0.7254538964
C        4.8327794977    1.6364670823   -0.6605502804
C        6.0666302740    1.0015438679   -0.6835605273
C        2.7213371496   -2.6914849006   -1.1751890145
C        0.3146764985   -2.0305484489    0.0139933072
C        3.7027035685    0.8317822295   -0.5730950840
C        6.1252567587   -0.3931523713   -0.6273568729
C        2.6407901632   -1.4782233734   -0.4509408423
C        1.4099696900   -1.1605062222    0.1859902477
C        3.8225811650   -0.5678858160   -0.4941455884
C       -0.0445774473    0.6097120501    1.2058418936
C        2.2390813440    0.1414952331    2.1432787330
N        5.0313623952   -1.1640240481   -0.5426286053
N        1.2603795421   -0.0564375094    1.0570654776
H        1.7249751379   -4.4634909543   -1.8786905307
H       -0.4400212653   -3.8639997794   -0.8290798102
H        4.7503811668    2.7168934638   -0.7175639456
H        6.9832646457    1.5733399601   -0.7532799633
H        3.6467732285   -2.9667004728   -1.6695557542
H       -0.6306533119   -1.8189316928    0.4939534055
H        2.7181808822    1.2806562440   -0.5798476317
H        7.0956536004   -0.8747530620   -0.6556633641
H       -0.5705978770    0.6376673851    0.2462412126
H        0.0958941719    1.6426780007    1.5389366312
H       -0.6608692549    0.0805192996    1.9396065468
H        2.6822106414    1.1396633320    2.0801111019
H        3.0401986532   -0.6023957827    2.0965618785
H        1.7462146863    0.0296828823    3.1140343214
29   

C        1.6730822744   -3.5801247577   -1.2178935207
C        0.4443188424   -3.2179549499   -0.6916125027
C        4.9040023728    1.6316775795   -0.5374558978
C        6.1071504751    0.9920915232   -0.7926177435
C        2.7655907391   -2.7280819904   -1.0730955662
C        0.3269603620   -2.0183281092    0.0042438851
C        3.7736379037    0.8356227840   -0.3905495588
C        6.1339489487   -0.3982906809   -0.9057159811
C        2.6785006656   -1.4835039619   -0.3918546848
C        1.4210212341   -1.1488034358    0.1879897535
C        3.8612798843   -0.5702685624   -0.4669861187
C       -0.0574019092    0.6533129862    1.1129493459
C        2.1422259542    0.1153970613    2.2046665927
N        5.0405885380   -1.1601828051   -0.7607882054
N        1.2388925086   -0.0431551646    1.0491147061
H        1.7836599937   -4.5161690294   -1.7534727841
H       -0.4127667748   -3.8719428042   -0.8047732786
H        4.8417499749    2.7128713402   -0.4704180035
H        7.0211297384    1.5581272672   -0.9200575367
H        3.6924657293   -3.0426003292   -1.5396015000
H       -0.6322434216   -1.7886728409    0.4469952172
H        2.8173624129    1.3169127696   -0.2474733213
H        7.0777460004   -0.8848013811   -1.1224077461
H       -0.5366525705    0.6599852736    0.1287513676
H        0.0889770252    1.6934951474    1.4198372514
H       -0.7196066903    0.1599079605    1.8315385969
H        2.5440114370    1.1325206708    2.2366742186
H        2.9793815835   -0.5873673896    2.1530543557
H        1.5986205944   -0.0842892899    3.1333264638
29   

C        1.7768632851   -3.6113959212   -1.0057730143
C        0.8442128153   -3.4944727009    0.0089366169
C        5.2576165797    1.4641623489   -0.0941564090
C        6.0575943826    1.1365357097   -1.1753771676
C        2.6693242449   -2.5700395670   -1.2493977868
C        0.7902778454   -2.3182520733    0.7478682955
C        4.1402689623    0.6712354028    0.1446403930
C        5.7268871823    0.0319398528   -1.9568959431
C        2.6706005399   -1.3604149045   -0.4942375382
C        1.6638153730   -1.2388202536    0.5075315017
C        3.8096242397   -0.4083300550   -0.7081950655
C        0.9826540314    1.1340905608    0.3872690889
C        0.9653035208   -0.0606713170    2.6014618985
N        4.6464128405   -0.7251895002   -1.7228922329
N        1.3814935191   -0.0377212510    1.1886996317
H        1.8250422353   -4.5158220076   -1.6015637821
H        0.1499240832   -4.3022042864    0.2104841597
H        5.5022737281    2.2979978383    0.5556161045
H        6.9424659423    1.7148138440   -1.4088856550
H        3.3950121375   -2.7474716628   -2.0347730708
H        0.0143042907   -2.2309001665    1.4959130475
H        3.5662235960    0.8946413511    1.0276347611
H        6.3704611490   -0.2287021078   -2.7889155196
H        1.3222858660    1.0356618187   -0.6484607717
H        1.4203947281    2.0458645628    0.8049169606
H       -0.1075843621    1.2297468368    0.3806460018
H        1.3132309175    0.8433093336    3.1105463471
H        1.4009545657   -0.9236607111    3.1151687518
H       -0.1254809160   -0.1160423877    2.6757180670
