39

C     -2.32887    1.42935    3.59776
C     -2.75949    2.30862    4.59307
C     -0.70459    1.95959    5.79310
C     -1.07464    0.81015    3.67716
C     -1.95896    2.59034    5.70890
C     -0.27217    1.09822    4.79472
C     -0.61104   -0.03443    2.52421
C     -2.11088    3.29636    8.22726
C     -1.47948    4.44553    7.49363
C     -2.44329    3.52339    6.75768
C      4.29579    1.54699    2.78025
C      4.20683    2.02555    5.24550
C      4.31340   -0.36627    4.41661
C      3.78018    1.04995    4.13975
N      2.28341    1.08615    4.00173
O      0.43535    0.13736    1.93295
O      1.75233    0.56387    6.43418
O      1.08697   -1.15144    4.69107
O     -1.48444   -0.98030    2.10100
S      1.30204    0.25117    5.07301
H     -2.96130    1.25278    2.73113
H     -3.73245    2.78401    4.49753
H     -0.05216    2.11304    6.64703
H     -1.49277    2.43716    8.46945
H     -2.89273    3.50851    8.95014
H     -1.82381    5.45238    7.70937
H     -0.42815    4.37415    7.23163
H     -3.42782    3.93730    6.55924
H      4.01651    0.85909    1.97443
H      3.89017    2.53685    2.54934
H      5.38717    1.61742    2.80133
H      3.83323    1.70574    6.21911
H      3.81818    3.02687    5.03616
H      5.29984    2.07788    5.28928
H      3.98891   -0.73035    5.39478
H      3.96422   -1.07204    3.65720
H      5.40841   -0.35747    4.40640
H      1.96896    0.83552    3.05912
H     -2.18543   -1.09469    2.76601
