18   
Generated by ForceBalance from scan.xyz: Frame 1 of 24
C       -1.1111527093    0.8593861045    0.2847864241
C       -1.2909949627   -0.2497765447   -0.5505650537
C        0.0525257492    0.9872579323    1.0510255653
C       -0.3041570699   -1.2355003241   -0.6280403449
C        1.0494531529    0.0097979556    0.9789732430
C        0.8561961885   -1.0863678684    0.1361840661
C        3.0419366511   -1.8400540051   -1.4823477789
O        1.5172851081   -3.6318787179   -0.2578101818
O        3.0677144820   -2.1472109582    1.1505189166
S        2.1508231098   -2.3319556926    0.0142250609
H       -1.8837995595    1.6213027110    0.3443464755
H       -2.2023904771   -0.3518056645   -1.1330897735
H        0.1823668193    1.8429282088    1.7078427565
H       -0.4387434077   -2.1183826282   -1.2461706227
H        1.9548315068    0.0770411384    1.5745216174
H        2.3593954780   -1.8794742149   -2.3322262131
H        3.8506411670   -2.5636715480   -1.6054893994
H        3.4426873727   -0.8355693188   -1.3401417685
18   
Generated by ForceBalance from scan.xyz: Frame 2 of 24
C       -1.1152414906    0.8513657391    0.2919997998
C       -1.3666145041   -0.3032638932   -0.4573635959
C        0.1104784942    1.0167090878    0.9479883051
C       -0.3887157021   -1.2964876082   -0.5642454381
C        1.0947217422    0.0298640722    0.8517486675
C        0.8329925549   -1.1087407522    0.0852256968
C        3.1430049548   -1.7732691266   -1.3991619747
O        1.4517625548   -3.6181029176   -0.5189342553
O        2.9070109097   -2.3606070393    1.1779469966
S        2.0993557993   -2.3817745638   -0.0519414214
H       -1.8795105217    1.6196600609    0.3738119875
H       -2.3252581586   -0.4350590975   -0.9513829068
H        0.2952007968    1.9069302249    1.5427872219
H       -0.5670093507   -2.2106430242   -1.1223298641
H        2.0393099423    0.1240814388    1.3793656060
H        2.5404915316   -1.6972784151   -2.3052884368
H        3.9375043121   -2.5118778623   -1.5255416981
H        3.5599624047   -0.8057774369   -1.1164099240
18   
Generated by ForceBalance from scan.xyz: Frame 3 of 24
C       -1.1289424970    0.8505416359    0.3091396312
C       -1.4364060129   -0.3395339758   -0.3580155143
C        0.1489047244    1.0519238644    0.8459216190
C       -0.4631326941   -1.3329969530   -0.5053732003
C        1.1263640609    0.0636947177    0.7132833405
C        0.8096674964   -1.1090307836    0.0211067538
C        3.2363145023   -1.7189836416   -1.3037101546
O        1.4087990287   -3.5664168083   -0.7696601700
O        2.7319674397   -2.5479262197    1.1705715339
S        2.0495864591   -2.4083858909   -0.1255241500
H       -1.8884329381    1.6197944031    0.4207422297
H       -2.4334901642   -0.4983030834   -0.7593512252
H        0.3784355869    1.9702041463    1.3792484145
H       -0.6761221026   -2.2693470895   -1.0117917105
H        2.1078710722    0.1890678564    1.1617086235
H        2.7231391322   -1.5286262655   -2.2472072710
H        4.0106242437   -2.4783659295   -1.4317508058
H        3.6633160492   -0.8041542870   -0.8910666244
18   
Generated by ForceBalance from scan.xyz: Frame 4 of 24
C       -1.1546686326    0.7429940572    0.5843149521
C       -0.0505312758    1.3999500780    0.0325627532
C       -1.2131013042   -0.6562178242    0.5920513505
C        1.0099970966    0.6625398171   -0.5034383440
C       -0.1657685847   -1.4022349161    0.0482071092
C        0.9451026289   -0.7310209037   -0.4721586916
C        2.8673882473   -2.7578714529    0.0458545047
O        3.3514134950   -0.7149146291   -1.5743899423
O        1.6860223811   -2.4982092468   -2.3264736411
S        2.2697460889   -1.6642105783   -1.2642775250
H       -1.9753687445    1.3200024614    1.0019893151
H       -0.0134143300    2.4856764675    0.0163575755
H       -2.0791657864   -1.1644538297    1.0067441027
H        1.8813562065    1.1474013920   -0.9324818315
H       -0.2267670503   -2.4863051033    0.0120830953
H        3.2118780240   -2.1470265347    0.8812292980
H        3.6971710633   -3.3177939806   -0.3903967863
H        2.0705079798   -3.4373404572    0.3494665170
18   
Generated by ForceBalance from scan.xyz: Frame 5 of 24
C       -1.1725743048    0.7514923859    0.5620885761
C       -0.1191335598    1.4211828924   -0.0686317698
C       -1.1478269720   -0.6425237923    0.6850132552
C        0.9701007387    0.7031852357   -0.5702655832
C       -0.0708239913   -1.3711172130    0.1749302737
C        0.9885302485   -0.6856106590   -0.4267569454
C        2.8049486951   -2.8488529974   -0.0133494582
O        3.4738980258   -0.6463850487   -1.3287264364
O        1.8242710365   -2.2519078815   -2.4195343432
S        2.3419433475   -1.5813430952   -1.2168409928
H       -2.0156534337    1.3139328382    0.9541266842
H       -0.1430460736    2.5025730414   -0.1707462299
H       -1.9713318119   -1.1634556273    1.1654631714
H        1.8062514166    1.2039414620   -1.0483705467
H       -0.0722473346   -2.4551545277    0.2400961776
H        3.0538521613   -2.3644779637    0.9316379582
H        3.6839549471   -3.3393652036   -0.4362768132
H        1.9944808715   -3.5684601406    0.1026438118
18   
Generated by ForceBalance from scan.xyz: Frame 6 of 24
C       -1.1861202570    0.7554660553    0.5408992601
C       -0.1863738110    1.4138260885   -0.1839836243
C       -1.0854707070   -0.6169458950    0.7890562110
C        0.9199558785    0.7055736126   -0.6574120602
C        0.0119698726   -1.3381281283    0.3093875188
C        1.0132062853   -0.6640374780   -0.3938025959
C        2.7051997885   -2.9580979430   -0.0839515233
O        3.5740371899   -0.6449862858   -1.0479923016
O        1.9835147788   -2.0263953247   -2.4729575924
S        2.4032476563   -1.5315247637   -1.1526856000
H       -2.0434138210    1.3110721762    0.9110604978
H       -0.2656359635    2.4795980653   -0.3794547341
H       -1.8631083472   -1.1301523649    1.3478893749
H        1.7140376094    1.2061157127   -1.2029996275
H        0.0700697871   -2.4070732567    0.4883821153
H        2.8664328871   -2.6146551695    0.9386182632
H        3.6149252680   -3.4134976413   -0.4801551169
H        1.8767585368   -3.6629257018   -0.1536178711
18   
Generated by ForceBalance from scan.xyz: Frame 7 of 24
C       -1.1867898935    0.7527266965    0.5204792934
C       -0.2458696733    1.3856050527   -0.3010407994
C       -1.0091777984   -0.5836434900    0.8871605732
C        0.8731100771    0.6868307665   -0.7547870366
C        0.1062214664   -1.2961903854    0.4330292275
C        1.0412377435   -0.6498304779   -0.3771744575
C        2.6101617371   -3.0506608642   -0.1850283362
O        3.6669163049   -0.6780189429   -0.7247751229
O        2.2041476305   -1.7827216036   -2.4866045487
S        2.4844414795   -1.4819101601   -1.0738792965
H       -2.0558922804    1.3010399169    0.8734441624
H       -0.3824494473    2.4246373134   -0.5875251461
H       -1.7379537480   -1.0775179334    1.5238530996
H        1.6144082173    1.1728677229   -1.3820103110
H        0.2270658342   -2.3357062345    0.7189432960
H        2.6962080870   -2.8615478107    0.8856350670
H        3.5303785211   -3.5014883991   -0.5617566604
H        1.7583529658   -3.6869789449   -0.4259596450
18   
Generated by ForceBalance from scan.xyz: Frame 8 of 24
C       -1.1892712203    0.7523647024    0.4957068881
C       -0.3108336061    1.3476718567   -0.4180861580
C       -0.9317609178   -0.5330896183    0.9779972025
C        0.8231522440    0.6606121893   -0.8513891869
C        0.2045662919   -1.2305829045    0.5526540858
C        1.0686425291   -0.6274031470   -0.3626231643
C        2.5408900389   -3.0939792722   -0.3028979726
O        3.7275249100   -0.7192567963   -0.3448574012
O        2.4873663836   -1.5050666969   -2.4247323007
S        2.5829271772   -1.4101963735   -0.9591519713
H       -2.0721050624    1.2903354705    0.8299986619
H       -0.5092631858    2.3473500124   -0.7943455150
H       -1.6112086756   -0.9974409118    1.6873349834
H        1.5054695911    1.1121618551   -1.5653997013
H        0.3935029918   -2.2262704994    0.9393864113
H        2.5911594303   -3.0726880791    0.7860541740
H        3.4394782846   -3.5630739496   -0.7083720064
H        1.6523125626   -3.6109442323   -0.6669486077
18   
Generated by ForceBalance from scan.xyz: Frame 9 of 24
C       -1.1993710396    0.7457751046    0.4663103861
C       -0.3784969079    1.2797880839   -0.5336817145
C       -0.8721474301   -0.4740486631    1.0656389046
C        0.7675471239    0.5949952997   -0.9416674129
C        0.2794021645   -1.1630138492    0.6721846977
C        1.0789376888   -0.6284483033   -0.3405027507
C        2.4517296941   -3.1406839792   -0.4419088863
O        3.7174842739   -0.8474359860    0.0018926439
O        2.7224666911   -1.2853972384   -2.3079222618
S        2.6396199571   -1.3867120274   -0.8415663706
H       -2.0925182081    1.2801103950    0.7784207746
H       -0.6310985064    2.2287638439   -0.9984190902
H       -1.5063996514   -0.8886318598    1.8442730857
H        1.4017829672    0.9882041167   -1.7304136267
H        0.5333066867   -2.1001310595    1.1568544511
H        2.4287524001   -3.2809552285    0.6387584863
H        3.3426607645   -3.6140332184   -0.8592121428
H        1.5552941563   -3.5295934182   -0.9264830175
18   
Generated by ForceBalance from scan.xyz: Frame 10 of 24
C       -1.2103629931    0.7294044479    0.4431500339
C       -0.4411958203    1.1962041217   -0.6277551396
C       -0.8117486966   -0.4093136204    1.1521860940
C        0.7241490588    0.5219438330   -1.0022059125
C        0.3588182282   -1.0830202947    0.7951158433
C        1.1013654748   -0.6223225556   -0.2957562262
C        2.3899265514   -3.1491246222   -0.5878657562
O        3.6809777338   -0.9998781529    0.2927138660
O        2.9282475976   -1.0893118705   -2.1519454943
S        2.6872813366   -1.3698153741   -0.7268155288
H       -2.1180640055    1.2541064203    0.7287160257
H       -0.7471731903    2.0844963716   -1.1733747909
H       -1.4039478356   -0.7664047048    1.9901281419
H        1.3246857995    0.8570004952   -1.8423129982
H        0.6810380935   -1.9461043356    1.3697035378
H        2.2195700867   -3.4220946614    0.4534766955
H        3.3054439366   -3.6195322988   -0.9521388520
H        1.5440902568   -3.4186336639   -1.2214978086
18   
Generated by ForceBalance from scan.xyz: Frame 11 of 24
C       -1.2178452437    0.7037157039    0.4397233324
C       -0.4972796816    1.1041316312   -0.6896987048
C       -0.7477419127   -0.3425349809    1.2430965435
C        0.6916889342    0.4523259737   -1.0317530183
C        0.4448890948   -0.9917010506    0.9182355876
C        1.1371081267   -0.6012203051   -0.2322624423
C        2.3472362711   -3.1169305201   -0.7324325733
O        3.6395212615   -1.1601169596    0.5140313034
O        3.1013889991   -0.9125925234   -1.9810236358
S        2.7296229104   -1.3516540618   -0.6259392052
H       -2.1427813022    1.2111005548    0.7004241013
H       -0.8575253329    1.9241951061   -1.3046329864
H       -1.3007842609   -0.6418316130    2.1290449309
H        1.2652411087    0.7380165602   -1.9080976317
H        0.8344814314   -1.7738681179    1.5635571546
H        2.0097064526   -3.4817123032    0.2379613929
H        3.2822817641   -3.6050504494   -1.0149619093
H        1.5884831588   -3.2653350347   -1.5017852650
18   
Generated by ForceBalance from scan.xyz: Frame 12 of 24
C       -1.2294019667    0.6800827755    0.4063391589
C       -0.5381559007    0.9943675682   -0.7680182502
C       -0.7101441937   -0.2643466820    1.3008145192
C        0.6710713463    0.3570753625   -1.0642483544
C        0.5009630234   -0.9003466691    1.0212579356
C        1.1646546842   -0.5941771021   -0.1706281282
C        2.2942149583   -3.0940297134   -0.8535781117
O        3.5633314894   -1.3597953547    0.7023260057
O        3.2554990683   -0.8110193637   -1.7864517035
S        2.7503934040   -1.3743204590   -0.5238956230
H       -2.1689108189    1.1777603241    0.6314665913
H       -0.9360116537    1.7386952520   -1.4522027454
H       -1.2400802399   -0.4932212115    2.2212047409
H        1.2305857356    0.5857552554   -1.9660538905
H        0.9350002483   -1.6019699702    1.7280132904
H        1.8306997486   -3.5222062237    0.0359415484
H        3.2260141250   -3.6139153707   -1.0861676066
H        1.6157472151   -3.1190388989   -1.7072974185
18   
Generated by ForceBalance from scan.xyz: Frame 13 of 24
C       -1.2427216798    0.6591547671    0.3981831443
C       -0.5856778845    0.8812810621   -0.8169454106
C       -0.6764177379   -0.1788495650    1.3663566203
C        0.6381049157    0.2570495058   -1.0760555898
C        0.5480584852   -0.8049352834    1.1210434878
C        1.1812832141   -0.5868290032   -0.1054259387
C        2.2599591138   -3.0432426546   -0.9872081421
O        3.4680558429   -1.5539874860    0.8451117189
O        3.3837951850   -0.7168760978   -1.5804275767
S        2.7574974518   -1.3936886970   -0.4333944231
H       -2.1930028983    1.1478930556    0.5960705133
H       -1.0202746506    1.5453101527   -1.5589809960
H       -1.1814572181   -0.3347423469    2.3155767966
H        1.1775197920    0.4277870413   -2.0027373186
H        1.0197313181   -1.4308675141    1.8729268031
H        1.7103676558   -3.5372995001   -0.1849390587
H        3.1844550981   -3.5814725131   -1.2071951227
H        1.6492449817   -2.9442472060   -1.8855732762
18   
Generated by ForceBalance from scan.xyz: Frame 14 of 24
C       -1.2330293427    0.6516774590    0.3902795048
C       -0.6102308559    0.7616193731   -0.8587470809
C       -0.6301592701   -0.0785851023    1.4204448969
C        0.6179026365    0.1354089329   -1.0855216297
C        0.5969388980   -0.7125304275    1.2047387306
C        1.2005388063   -0.5987515462   -0.0492053328
C        2.2536975793   -2.9899925838   -1.1203714965
O        3.3556327555   -1.7720819762    0.9628335350
O        3.5195314933   -0.6681894907   -1.3464103463
S        2.7662738364   -1.4379243699   -0.3436783895
H       -2.1864514013    1.1437374286    0.5632456058
H       -1.0749751374    1.3416568076   -1.6512030107
H       -1.1105762027   -0.1497873546    2.3923313645
H        1.1319282459    0.2331522111   -2.0372446385
H        1.0940247526   -1.2698297242    1.9929543069
H        1.6131417698   -3.5367476478   -0.4271396832
H        3.1714639192   -3.5478214015   -1.3186283316
H        1.7320184406   -2.7660477032   -2.0517541903
18   
Generated by ForceBalance from scan.xyz: Frame 15 of 24
C       -1.2236862042    0.6571444607    0.3968322189
C       -0.6468016380    0.6451872566   -0.8793355535
C       -0.5807146858    0.0312025725    1.4695968357
C        0.5770062980    0.0056586272   -1.0869140849
C        0.6406547868   -0.6209339793    1.2722626260
C        1.2037773060   -0.6188332683   -0.0044884370
C        2.2713268412   -2.9216808286   -1.2538432394
O        3.2195035439   -1.9858726910    1.0397233394
O        3.6327271791   -0.6430228486   -1.0992194557
S        2.7609373404   -1.4867334973   -0.2668580661
H       -2.1743609716    1.1594894616    0.5545536407
H       -1.1447598727    1.1403812346   -1.7083003306
H       -1.0285927416    0.0483002179    2.4593330151
H        1.0522538380    0.0194072966   -2.0637836112
H        1.1603959735   -1.1173524359    2.0859230275
H        1.5534493606   -3.5116057395   -0.6826014093
H        3.1862578825   -3.4914622942   -1.4296198947
H        1.8456125279   -2.5819352560   -2.1986218373
18   
Generated by ForceBalance from scan.xyz: Frame 16 of 24
C       -1.2225148127    0.6819387950    0.4058827596
C       -0.7016537552    0.5409783403   -0.8862453351
C       -0.5377779466    0.1531239532    1.5045188135
C        0.5095424007   -0.1256468079   -1.0826293175
C        0.6691303939   -0.5280645165    1.3180493537
C        1.1830671862   -0.6468409824    0.0261236217
C        2.3150259445   -2.8435399809   -1.3766643744
O        3.0476792111   -2.1958894371    1.0868375817
O        3.7150132977   -0.6440275440   -0.8256791753
S        2.7348434479   -1.5410091079   -0.1940680287
H       -2.1638273753    1.2041711036    0.5545186833
H       -1.2340918772    0.9545329017   -1.7381999688
H       -0.9450092714    0.2624017819    2.5058626279
H        0.9329619062   -0.2074985569   -2.0797358953
H        1.2092447628   -0.9675626311    2.1507809397
H        1.5199197057   -3.4581180682   -0.9528862457
H        3.2280858635   -3.4285989347   -1.5048650170
H        2.0147704649   -2.3990973581   -2.3257301368
18   
Generated by ForceBalance from scan.xyz: Frame 17 of 24
C       -1.2083736051    0.7113700111    0.4160475936
C       -0.7559554276    0.4328896359   -0.8784555639
C       -0.4777515103    0.2741504479    1.5258700312
C        0.4332289177   -0.2758461533   -1.0674768316
C        0.7055304529   -0.4478434476    1.3486576711
C        1.1550718867   -0.7012967565    0.0509827484
C        2.3837276185   -2.7736889556   -1.4855527553
O        2.8574777993   -2.4300548899    1.0986305505
O        3.7651883210   -0.7009350957   -0.5356100355
S        2.6973257670   -1.6255198760   -0.1240205994
H       -2.1325221530    1.2649128073    0.5585896896
H       -1.3250933611    0.7690185217   -1.7407009387
H       -0.8336014630    0.4841515304    2.5307073822
H        0.7917969245   -0.4687941101   -2.0740836023
H        1.2692851005   -0.8251368694    2.1960858200
H        1.4958059512   -3.3639952391   -1.2563356313
H        3.2686050522   -3.4120544063   -1.5262171660
H        2.2758817375   -2.2253330730   -2.4212821619
18   
Generated by ForceBalance from scan.xyz: Frame 18 of 24
C       -1.1998380912    0.7446718764    0.4190549329
C       -0.8199110349    0.3360809848   -0.8627045258
C       -0.4183970601    0.3934973031    1.5258572992
C        0.3457453655   -0.4146919903   -1.0453003094
C        0.7412496570   -0.3653299152    1.3571349491
C        1.1192296913   -0.7512517109    0.0678185464
C        2.4611533575   -2.6734484170   -1.5855559897
O        2.6613471445   -2.6552367429    1.0586263780
O        3.7719688299   -0.7790683973   -0.2515902036
S        2.6457279032   -1.7078061586   -0.0681213256
H       -2.1051852026    1.3297273217    0.5560090997
H       -1.4278513269    0.6010340030   -1.7232683402
H       -0.7167975309    0.7023792409    2.5237870594
H        0.6363539907   -0.7161389119   -2.0464697547
H        1.3387287813   -0.6711581207    2.2104507054
H        1.5403457051   -3.2557834269   -1.5355820061
H        3.3288405663   -3.3359328452   -1.5973341627
H        2.4844036116   -2.0154442924   -2.4542325690
18   
Generated by ForceBalance from scan.xyz: Frame 19 of 24
C       -1.1923406215    0.7785640493    0.4047616875
C       -0.8847109758    0.2553542661   -0.8534864794
C       -0.3597093993    0.5111443147    1.4984560961
C        0.2580408236   -0.5333831528   -1.0278489462
C        0.7792513126   -0.2781013416    1.3375825468
C        1.0807727582   -0.7889519261    0.0703451232
C        2.5444710855   -2.5476409351   -1.6696119091
O        2.4643178095   -2.8630813816    0.9630332623
O        3.7421302217   -0.8785546417    0.0173429771
S        2.5840024331   -1.7848048677   -0.0315530888
H       -2.0802906792    1.3910472994    0.5350460174
H       -1.5308407442    0.4580320946   -1.7031055270
H       -0.6000431720    0.9132321820    2.4787033010
H        0.4867943462   -0.9293980525   -2.0115631919
H        1.4216650626   -0.5041770910    2.1833607960
H        1.6401914247   -3.1480925524   -1.7750796528
H        3.4266140024   -3.1905939535   -1.6887376994
H        2.6255772823   -1.7819908420   -2.4415541020
18   
Generated by ForceBalance from scan.xyz: Frame 20 of 24
C       -1.1741862044    0.7848041574    0.3888816678
C       -0.9256316828    0.1411760679   -0.8256784662
C       -0.3037019459    0.6017006338    1.4704806778
C        0.1910209111   -0.6906785765   -0.9667291615
C        0.8137477580   -0.2229664535    1.3404899194
C        1.0491232745   -0.8659083962    0.1200510945
C        2.6493728479   -2.4638228967   -1.6530260096
O        2.2630134388   -3.1036640157    0.8941369728
O        3.6843426486   -1.0639424002    0.3473326901
S        2.5179390556   -1.9155273720    0.0643674498
H       -2.0426633263    1.4292932337    0.4935014160
H       -1.5978771142    0.2828915312   -1.6673664047
H       -0.4935136770    1.1036316224    2.4151185252
H        0.3695629290   -1.1850337667   -1.9155830414
H        1.4986275018   -0.3627985388    2.1715375636
H        1.7882555462   -3.0789183074   -1.9157789533
H        3.5586034252   -3.0678047702   -1.6735942517
H        2.7584823137   -1.6006912669   -2.3105554519
18   
Generated by ForceBalance from scan.xyz: Frame 21 of 24
C       -1.1536702661    0.8168826184    0.3777367981
C       -0.9895686260    0.0645966152   -0.7887022921
C       -0.2267960228    0.7055204462    1.4208216868
C        0.0957970711   -0.8085211191   -0.9158878303
C        0.8655336595   -0.1550448445    1.3008794916
C        1.0095808037   -0.9131912343    0.1346788909
C        2.7172043433   -2.3258799839   -1.6842443040
O        2.0760353288   -3.2969961074    0.7035187813
O        3.5967139590   -1.2528521597    0.5692635812
S        2.4390884441   -2.0168190360    0.0760330933
H       -1.9991940182    1.4927361320    0.4722619287
H       -1.7043840715    0.1537795347   -1.6020243590
H       -0.3487396977    1.2956212450    2.3248383677
H        0.2063626678   -1.3947064420   -1.8222491729
H        1.6068054520   -0.2280290052    2.0908558726
H        1.9048580630   -2.9266860757   -2.0933736121
H        3.6506248502   -2.8912283009   -1.7173261111
H        2.8324222579   -1.3765105321   -2.2085301210
18   
Generated by ForceBalance from scan.xyz: Frame 22 of 24
C       -1.1327088561    0.8321880312    0.3552983756
C       -1.0550863109   -0.0306434124   -0.7431627377
C       -0.1497191384    0.7922361996    1.3499296486
C       -0.0012978172   -0.9426416965   -0.8474343985
C        0.9161005648   -0.1055540313    1.2496730548
C        0.9692453452   -0.9743684030    0.1571141595
C        2.7973481153   -2.1874017027   -1.6686377842
O        1.9069970017   -3.4625636683    0.4855635440
O        3.4910032172   -1.4747187717    0.7771202639
S        2.3632801504   -2.1221313604    0.0868337176
H       -1.9553037074    1.5379896768    0.4324978120
H       -1.8151645935    0.0027463704   -1.5187215379
H       -0.2049541045    1.4677931042    2.1990309758
H        0.0403918634   -1.6232554588   -1.6922052745
H        1.7066336823   -0.1262154668    1.9933725049
H        2.0102609243   -2.6867444866   -2.2333611114
H        3.7156404148   -2.7768205563   -1.7079222548
H        2.9786272271   -1.1746704596   -2.0304503022
18   
Generated by ForceBalance from scan.xyz: Frame 23 of 24
C       -1.1186028176    0.8385938564    0.3206278045
C       -1.1295242900   -0.1294154372   -0.6909714231
C       -0.0796591411    0.8678199846    1.2561263841
C       -0.1053562620   -1.0757184776   -0.7681757438
C        0.9578923554   -0.0664245672    1.1792427182
C        0.9252294607   -1.0355223620    0.1754666158
C        2.8743519838   -2.0548177124   -1.6161799654
O        1.7570053689   -3.5783143689    0.2509198210
O        3.3649425241   -1.7089944573    0.9550399326
S        2.2881401703   -2.2162337316    0.0886242991
H       -1.9198717353    1.5704809276    0.3771408495
H       -1.9379571795   -0.1511288660   -1.4164198443
H       -0.0700210764    1.6210359105    2.0391133160
H       -0.1310083869   -1.8462534883   -1.5333722265
H        1.7893506251   -0.0486884751    1.8768629698
H        2.0955936049   -2.3723090584   -2.3096420342
H        3.7387079123   -2.7179918804   -1.6908516451
H        3.1685695962   -1.0191823552   -1.7901718813
18   
Generated by ForceBalance from scan.xyz: Frame 24 of 24
C       -1.1114874137    0.8535355077    0.2917167166
C       -1.2105267099   -0.1942051332   -0.6324170302
C       -0.0102448614    0.9362103968    1.1497941981
C       -0.2081034220   -1.1637815792   -0.7012618149
C        1.0055744152   -0.0228715538    1.0838904098
C        0.8870565370   -1.0634850378    0.1619120168
C        2.9474379793   -1.9231265284   -1.5669065593
O        1.6218262681   -3.6218640855   -0.0179764232
O        3.2240012256   -1.9324464307    1.0641974370
S        2.2146433324   -2.2771014958    0.0498199349
H       -1.8961631345    1.6035842511    0.3439531065
H       -2.0711585076   -0.2602709396   -1.2921693546
H        0.0610842928    1.7475787897    1.8688449011
H       -0.2915464697   -2.0000823105   -1.3897283575
H        1.8745831483    0.0208173734    1.7331544989
H        2.2034117041   -2.0889172062   -2.3467033370
H        3.7792082517   -2.6220181542   -1.6781524131
H        3.3065848264   -0.8932356468   -1.5714443050
