25   
Generated by ForceBalance from scan.xyz: Frame 1 of 24
C        1.8889278509   -1.0084497619   -0.1806749452
C        1.8347983726    0.1910449675    0.5363500154
C        1.9025940004   -2.2298091272    0.5035577158
C        1.3322133000   -0.3224482581    8.4636452961
C        0.5728241804    0.8147498711    8.7584479560
C        1.7794531102    0.1704247708    1.9323617307
C        1.8577165681   -2.2518855556    1.8974753665
C        1.5684445328   -0.6762713305    7.1367659256
C        0.0754367479    1.5595906872    7.6876583071
C        1.7819752842   -1.0527841634    2.6220245572
C        1.0208409864    0.1502330275    6.1401097516
C        1.7412682164   -1.1544231157    4.1191666910
N        0.2895032962    1.2439306165    6.4047330132
N        1.1924067581   -0.0624422192    4.7621144176
O        2.1550239074   -2.1503857821    4.7105766789
H        1.9288759624   -0.9912436617   -1.2667115117
H        1.8441823001    1.1418807529    0.0103257673
H        1.9516791571   -3.1631448440   -0.0510002324
H        1.7393025461   -0.9366592976    9.2627666018
H        0.3696297747    1.1160465434    9.7815146503
H        1.7739884845    1.1132593735    2.4730729107
H        1.8819563514   -3.1880149671    2.4464005854
H        2.1386957489   -1.5530890704    6.8633867902
H       -0.5233671657    2.4519992728    7.8625128556
H        0.6706807713    0.6075055732    4.2087897799
25   
Generated by ForceBalance from scan.xyz: Frame 2 of 24
C        1.9223583644   -1.0006840260   -0.1865906095
C        1.9345796861    0.1955983716    0.5379306671
C        1.8414054544   -2.2252088804    0.4879134286
C        1.4320302430   -0.2479409885    8.4357347654
C        0.5691705519    0.8096156529    8.7434916941
C        1.8529614841    0.1697512290    1.9325797675
C        1.7683384352   -2.2536681624    1.8803814836
C        1.6724573308   -0.5831056080    7.1051521878
C       -0.0237513318    1.4945647401    7.6818727461
C        1.7611622130   -1.0559462605    2.6115315277
C        1.0238136224    0.1782838642    6.1176309582
C        1.6819894332   -1.1546653411    4.1052990521
N        0.1929969057    1.1940972669    6.3952368314
N        1.2058477533   -0.0124323204    4.7349467033
O        1.9877979057   -2.1818496464    4.7057255758
H        1.9835383113   -0.9794476608   -1.2716039753
H        2.0161092933    1.1467435032    0.0186867427
H        1.8378882847   -3.1557116640   -0.0735218362
H        1.9150722639   -0.8146516399    9.2275980117
H        0.3590552148    1.0943636111    9.7698952939
H        1.8968996960    1.1030641383    2.4869686224
H        1.7166195010   -3.1927995738    2.4224081183
H        2.3161717820   -1.4059011655    6.8267658209
H       -0.7056090675    2.3230480297    7.8667093826
H        0.5680445162    0.5748399479    4.2071819285
25   
Generated by ForceBalance from scan.xyz: Frame 3 of 24
C        1.9938866269   -1.0070130305   -0.1690751472
C        2.0536291650    0.1816929600    0.5657420300
C        1.8064393962   -2.2286218392    0.4899921734
C        1.5479061416   -0.1837504160    8.4061469130
C        0.5920928009    0.7790970787    8.7510366839
C        1.9157786570    0.1524475221    1.9558670851
C        1.6753422239   -2.2608445116    1.8779142329
C        1.7659581494   -0.4904304748    7.0657590772
C       -0.1118048341    1.3984512953    7.7180698341
C        1.7190051156   -1.0694593773    2.6189286125
C        1.0019217815    0.1970831046    6.1077553565
C        1.5709391367   -1.1626239516    4.1053698718
N        0.0821645402    1.1197365688    6.4219305725
N        1.1688312824    0.0308576656    4.7169063502
O        1.7415134053   -2.2123724117    4.7159375065
H        2.0994225709   -0.9828423260   -1.2506570911
H        2.2151659635    1.1287262276    0.0578048771
H        1.7643956644   -3.1529196468   -0.0800584422
H        2.1189722373   -0.6964826957    9.1758807921
H        0.3955930345    1.0408988162    9.7861915642
H        1.9915543110    1.0739704842    2.5254533055
H        1.5376075846   -3.1977837650    2.4086675824
H        2.4820068049   -1.2424933135    6.7626451951
H       -0.8676194477    2.1519710218    7.9334569542
H        0.4366080727    0.5413351009    4.2295607603
25   
Generated by ForceBalance from scan.xyz: Frame 4 of 24
C        2.1018034282   -1.0334834589   -0.1677163371
C        2.1581706901    0.1512327116    0.5738214039
C        1.8238054189   -2.2485486289    0.4720682922
C        1.6508341479   -0.1320015516    8.3196538849
C        0.6443817540    0.7518422671    8.7292576689
C        1.9301987303    0.1251733427    1.9519811055
C        1.5994215278   -2.2781952411    1.8476310948
C        1.8097430852   -0.4132076223    6.9664369411
C       -0.1667332585    1.3163187597    7.7455741897
C        1.6436981907   -1.0898735813    2.5948896042
C        0.9370434113    0.2126538045    6.0607030861
C        1.3937904260   -1.1713810107    4.0653371926
N       -0.0317919752    1.0566469861    6.4369442818
N        1.0511578860    0.0649836129    4.6596041542
O        1.4184457402   -2.2302497835    4.6789368474
H        2.2789227166   -1.0118978105   -1.2400049169
H        2.3866210948    1.0921328814    0.0803842935
H        1.7831114007   -3.1690513854   -0.1041476164
H        2.3061912074   -0.6003342247    9.0494712231
H        0.4910518398    0.9939369345    9.7764337256
H        1.9977174291    1.0391879870    2.5337121657
H        1.3870695976   -3.2095237578    2.3635367272
H        2.5676734596   -1.1029271661    6.6168424956
H       -0.9651972629    2.0068649362    8.0119915254
H        0.2392794140    0.5130796897    4.2376856911
25   
Generated by ForceBalance from scan.xyz: Frame 5 of 24
C        2.2507182017   -1.0516236359   -0.1212323234
C        2.2662077046    0.1317770483    0.6243145101
C        1.8948848123   -2.2623701924    0.4885018364
C        1.7636905043   -0.0860528058    8.2173054279
C        0.7400275756    0.7313196083    8.7148326638
C        1.9227220731    0.1091675694    1.9783073755
C        1.5526515681   -2.2884210469    1.8391165628
C        1.8317857574   -0.3442313530    6.8527438924
C       -0.1789721541    1.2508344977    7.8045680799
C        1.5595248417   -1.1010991030    2.5910278451
C        0.8525376333    0.2302861303    6.0247790693
C        1.1841321496   -1.1719564960    4.0319426895
N       -0.1341337010    1.0077054110    6.4858977528
N        0.8805824268    0.0966096858    4.6166404641
O        1.0690401898   -2.2294672842    4.6331038855
H        2.5187587931   -1.0328194952   -1.1745651004
H        2.5517612395    1.0684428759    0.1530891916
H        1.8850082527   -3.1809114167   -0.0921583389
H        2.5023206028   -0.5176656328    8.8878550745
H        0.6554102895    0.9562267285    9.7735652105
H        1.9514678938    1.0187793922    2.5693170675
H        1.2754304965   -3.2153080699    2.3317563780
H        2.6057296258   -0.9787739762    6.4365950937
H       -0.9945465941    1.8887689337    8.1411795593
H       -0.0016378240    0.4777210933    4.2737722551
25   
Generated by ForceBalance from scan.xyz: Frame 6 of 24
C        2.4346392879   -1.0676141159   -0.0237716204
C        2.3771891075    0.1147676220    0.7211425291
C        2.0031348310   -2.2767028456    0.5397882371
C        1.8879044543   -0.0469118109    8.0582702607
C        0.8785501278    0.7072451293    8.6720870104
C        1.8865235087    0.0935594091    2.0290287793
C        1.5139700100   -2.3019386405    1.8438255078
C        1.8261004755   -0.2858456089    6.6903982203
C       -0.1571185199    1.1833186352    7.8698632828
C        1.4496099210   -1.1150180139    2.5955620189
C        0.7336240736    0.2375662564    5.9763974746
C        0.9212566273   -1.1794122612    3.9845602391
N       -0.2401402951    0.9536504884    6.5502992393
N        0.6338689279    0.1096445430    4.5717569886
O        0.6789511093   -2.2304509131    4.5541884657
H        2.8169040630   -1.0497545086   -1.0412923281
H        2.7182988560    1.0498081566    0.2849987828
H        2.0493100276   -3.1938308604   -0.0413083610
H        2.7161424015   -0.4416282690    8.6412103474
H        0.8930910016    0.9173973871    9.7370731593
H        1.8480510602    1.0004843093    2.6229920568
H        1.1752008854   -3.2271052403    2.2998821264
H        2.5914187588   -0.8652893650    6.1848604512
H       -0.9656740884    1.7726277376    8.2994820810
H       -0.3071406915    0.4192452938    4.3240325711
25   
Generated by ForceBalance from scan.xyz: Frame 7 of 24
C        3.1066118385   -0.5403698609    1.3066564587
C        2.4260324780    0.4364141822    2.0418919027
C        2.6849992238   -1.8748815459    1.3556189787
C        2.3598485381   -0.2238822631    6.8484867957
C        1.9927695183    1.0377570235    7.3359841483
C        1.3378163796    0.0804272362    2.8401591432
C        1.5856320483   -2.2300543267    2.1367917594
C        1.4900021602   -0.9113487511    6.0106123872
C        0.7526777953    1.5484848019    6.9532532159
C        0.9138367138   -1.2571008530    2.8938391914
C        0.2778718587   -0.2880193675    5.6585281957
C       -0.2910646329   -1.6814917740    3.6737534200
N       -0.0897410954    0.9138682898    6.1240729473
N       -0.6566893632   -0.9315510938    4.8358875124
O       -0.9382513266   -2.6679988676    3.3626981151
H        3.9604321492   -0.2621881478    0.6941048389
H        2.7450060223    1.4741382433    1.9956434892
H        3.2099665520   -2.6331524087    0.7807967000
H        3.3087854301   -0.6721609217    7.1312118849
H        2.6405435085    1.6018140905    7.9997729025
H        0.8169733987    0.8438919236    3.4088030211
H        1.2314818810   -3.2558001171    2.1725303102
H        1.7289220037   -1.9018483318    5.6380160780
H        0.4154186244    2.5167874448    7.3197512046
H       -1.4849538857   -0.3530064677    4.7145282658
25   
Generated by ForceBalance from scan.xyz: Frame 8 of 24
C        3.1343694688   -0.6050283369    1.3436543290
C        2.4724332839    0.3964357436    2.0628042580
C        2.6678651763   -1.9244497302    1.3879658436
C        2.4132949600   -0.1404757709    6.7844785195
C        1.9839243301    1.0668419038    7.3515127204
C        1.3599045662    0.0776521738    2.8430695373
C        1.5419602982   -2.2404938353    2.1490350366
C        1.5566302012   -0.8433955715    5.9454779429
C        0.6965650092    1.5083552198    7.0466257408
C        0.8917302917   -1.2446792643    2.8932784755
C        0.2927784308   -0.2873632621    5.6738393871
C       -0.3452126112   -1.6223854759    3.6479482888
N       -0.1358399952    0.8586304503    6.2192962265
N       -0.6382223718   -0.9476741592    4.8580385705
O       -1.0792310804   -2.5203428580    3.2605565241
H        4.0075273464   -0.3569999125    0.7456055881
H        2.8243520070    1.4235484088    2.0176782078
H        3.1771043375   -2.7013287952    0.8239142536
H        3.4004941961   -0.5369369785    7.0069686290
H        2.6199422828    1.6400698146    8.0188430446
H        0.8516230779    0.8587151715    3.3994902256
H        1.1511420119   -3.2531890837    2.1766503077
H        1.8459885929   -1.7943381395    5.5118386432
H        0.3098171947    2.4300091691    7.4784683312
H       -1.5402814101   -0.4781982892    4.8707739241
25   
Generated by ForceBalance from scan.xyz: Frame 9 of 24
C        3.1440327541   -0.6912078805    1.3379926590
C        2.5167747286    0.3409463069    2.0449236159
C        2.6308217597   -1.9925295048    1.3953816983
C        2.4626938288   -0.0460766955    6.7600110737
C        1.9721537402    1.0825306154    7.4294573756
C        1.3929956551    0.0705861527    2.8274920693
C        1.4931314695   -2.2609344875    2.1579062022
C        1.6261343669   -0.7445752275    5.8968579116
C        0.6465735733    1.4514476046    7.2011990781
C        0.8807704169   -1.2342352630    2.8912473089
C        0.3183048022   -0.2611438117    5.7072422247
C       -0.3686947930   -1.5583690345    3.6503454553
N       -0.1685569347    0.8057584236    6.3543832240
N       -0.6023950463   -0.9156232630    4.8753245394
O       -1.1723968824   -2.3835953931    3.2330033043
H        4.0257379357   -0.4806151517    0.7381370326
H        2.9039924100    1.3546885797    1.9878545806
H        3.1121921211   -2.7926770911    0.8394487154
H        3.4816006998   -0.3879272601    6.9218896465
H        2.5913018424    1.6491889048    8.1179136099
H        0.9098613139    0.8743435464    3.3743014639
H        1.0654117712   -3.2584049750    2.1940912990
H        1.9655446687   -1.6381787741    5.3857567195
H        0.2123910046    2.3074080976    7.7152668893
H       -1.5538747872   -0.5831284314    5.0054030936
25   
Generated by ForceBalance from scan.xyz: Frame 10 of 24
C        3.1626000087   -0.7686855371    1.3059277237
C        2.5571727411    0.2956596197    1.9837837807
C        2.6208036930   -2.0561311773    1.3987250121
C        2.5075778070    0.0458387352    6.7380887734
C        1.9714815849    1.0833142789    7.5108425333
C        1.4275441185    0.0705809456    2.7724445483
C        1.4768934986   -2.2786010035    2.1675229517
C        1.6915740246   -0.6315331459    5.8382845636
C        0.6192862121    1.3840616074    7.3463637700
C        0.8873419221   -1.2202358855    2.8727494189
C        0.3521455602   -0.2168355516    5.7208871595
C       -0.3680583518   -1.4926373399    3.6421691467
N       -0.1790141972    0.7591932871    6.4694003741
N       -0.5612621816   -0.8440088823    4.8597257667
O       -1.2244335026   -2.2622312093    3.2178618252
H        4.0484558271   -0.5937304714    0.7007860213
H        2.9655130939    1.2991198511    1.8986262312
H        3.0840594313   -2.8815820075    0.8648246153
H        3.5488577259   -0.2457176143    6.8474628912
H        2.5752971592    1.6294324414    8.2288898162
H        0.9609644078    0.8982735706    3.2977484066
H        1.0275097014   -3.2652904304    2.2287801372
H        2.0722518508   -1.4581323219    5.2504881349
H        0.1482185935    2.1647853286    7.9413383259
H       -1.5334205509   -0.6616728241    5.0918634556
25   
Generated by ForceBalance from scan.xyz: Frame 11 of 24
C        3.1784644017   -0.8197034070    1.2785671508
C        2.5892572506    0.2723432926    1.9261056255
C        2.6219301891   -2.0967925030    1.4156811450
C        2.5462870516    0.1206728193    6.7549642121
C        1.9784561854    1.0573438329    7.6260849277
C        1.4616824434    0.0848302587    2.7276008828
C        1.4800373815   -2.2822000474    2.1975758607
C        1.7456915858   -0.5122437805    5.8088598247
C        0.6098696555    1.3032312283    7.5105894280
C        0.9075706602   -1.1956064057    2.8726023500
C        0.3860135550   -0.1557963817    5.7497173045
C       -0.3445282478   -1.4262838465    3.6600283149
N       -0.1747316630    0.7205863588    6.5943787574
N       -0.5256946925   -0.7281242735    4.8458158836
O       -1.2299536125   -2.1727486116    3.2507316757
H        4.0622899480   -0.6744439130    0.6627139481
H        3.0080374137    1.2679966180    1.8066607456
H        3.0721195842   -2.9440319051    0.9052743918
H        3.6017014258   -0.1302247023    6.8216718943
H        2.5700235506    1.5664517528    8.3806008086
H        1.0072344329    0.9330601373    3.2304923859
H        1.0200076067   -3.2613531683    2.2919174093
H        2.1571053986   -1.2636708871    5.1468045697
H        0.1133270752    2.0019528348    8.1819285802
H       -1.4895409718   -0.7096185675    5.1674395305
25   
Generated by ForceBalance from scan.xyz: Frame 12 of 24
C        3.1872551694   -0.8836419853    1.2589104161
C        2.5951074876    0.2327758181    1.8609013617
C        2.6311694343   -2.1546931506    1.4438228572
C        2.5415502190    0.1798867201    6.7385832523
C        1.9495733660    1.0318769992    7.6765831934
C        1.4650506814    0.0770220669    2.6655896094
C        1.4861404222   -2.3094965052    2.2281881787
C        1.7550115675   -0.4178161507    5.7570985670
C        0.5707261577    1.2294184717    7.5912547621
C        0.9119870920   -1.1975645193    2.8582874719
C        0.3820921311   -0.1138637030    5.7349018408
C       -0.3438716979   -1.3942794702    3.6485879262
N       -0.2003949959    0.6787643681    6.6453586271
N       -0.5341651124   -0.6424664666    4.7999952409
O       -1.2499584875   -2.1145206733    3.2365070857
H        4.0729950558   -0.7619677727    0.6407505255
H        3.0137759943    1.2231722886    1.7033984370
H        3.0832825836   -3.0211450751    0.9685901447
H        3.6063638350   -0.0345274604    6.7780044146
H        2.5301512807    1.5119646408    8.4581869835
H        1.0082247029    0.9432677394    3.1347695372
H        1.0261427790   -3.2846136778    2.3580794148
H        2.1915638173   -1.1053326089    5.0448171543
H        0.0546474156    1.8595736936    8.3138188618
H       -1.4589406768   -0.7781364743    5.2011190377
25   
Generated by ForceBalance from scan.xyz: Frame 13 of 24
C        0.6315756811   -1.6432532587    1.0535741241
C        0.3879056961   -0.4368454879    1.7202418128
C        1.7993034337   -2.3667930232    1.3222487437
C       -0.1361828754   -0.7312982401    6.5139459912
C       -0.3322903312    0.3184564273    7.4184799533
C        1.2968295465    0.0322870467    2.6702625545
C        2.7208701535   -1.8862360439    2.2548210538
C        0.9983201394   -0.7407686192    5.7080589777
C        0.6445415866    1.3129261795    7.4791034388
C        2.4638870965   -0.6951767080    2.9470066418
C        1.8974125162    0.3356231567    5.8193253530
C        3.4990389129   -0.1879670307    3.9020115641
N        1.7334114726    1.3331875096    6.6991812409
N        3.0811295317    0.4377058821    5.0685660466
O        4.6981360769   -0.2662807075    3.6478159416
H       -0.0814809335   -2.0132321685    0.3213364784
H       -0.5087476457    0.1363897201    1.5002506465
H        1.9949400330   -3.2984235729    0.7980413242
H       -0.8512409539   -1.5471060471    6.4469831981
H       -1.2016457493    0.3571106269    8.0674356857
H        1.1052989480    0.9673436154    3.1878300356
H        3.6443865836   -2.4215081628    2.4545017878
H        1.1861125522   -1.5591300016    5.0245553745
H        0.5538819669    2.1370892363    8.1847974657
H        3.8016720588    0.9985285134    5.5146921667
25   
Generated by ForceBalance from scan.xyz: Frame 14 of 24
C        0.5972709513   -1.5806044276    1.0860427156
C        0.3736958437   -0.3946113847    1.7947823677
C        1.7681716439   -2.3161578117    1.3042511693
C       -0.0762614438   -0.7837407021    6.5198533475
C       -0.3515868763    0.3352489439    7.3154284265
C        1.3056190283    0.0433551488    2.7373283890
C        2.7127166578   -1.8669242161    2.2289571417
C        1.0920852554   -0.8187602125    5.7661317454
C        0.5809668492    1.3726657701    7.3226267419
C        2.4761936950   -0.6962310138    2.9628504287
C        1.9419911434    0.3016255136    5.8136029070
C        3.5391936838   -0.2228984013    3.9052631451
N        1.7015516093    1.3688936536    6.5870630388
N        3.1542049648    0.3623535856    5.1093372876
O        4.7306814890   -0.3319914149    3.6329722357
H       -0.1344958221   -1.9258145782    0.3601700055
H       -0.5260643333    0.1872864456    1.6138166610
H        1.9476810026   -3.2319369174    0.7473408071
H       -0.7572076192   -1.6305802845    6.4995793490
H       -1.2491403323    0.3953068239    7.9230599544
H        1.1286295893    0.9632594484    3.2861202288
H        3.6388387448   -2.4102880387    2.3911491037
H        1.3449742923   -1.6846447322    5.1661687278
H        0.4262748440    2.2534055318    7.9437553154
H        3.7974174704    1.0650184393    5.4625476207
25   
Generated by ForceBalance from scan.xyz: Frame 15 of 24
C        0.5412117815   -1.5103694950    1.1023951686
C        0.3568524467   -0.3387603032    1.8451923508
C        1.7018037039   -2.2737803756    1.2765427102
C        0.0165767712   -0.8323936800    6.5351890028
C       -0.3324540903    0.3417105443    7.2151038705
C        1.3178987711    0.0564409975    2.7773076796
C        2.6742266565   -1.8663498527    2.1910505739
C        1.2074080159   -0.8778527096    5.8192779387
C        0.5486060881    1.4207584501    7.1468895632
C        2.4794988657   -0.7094436322    2.9593960777
C        2.0026018545    0.2825468200    5.7818103973
C        3.5758382915   -0.2832460586    3.8863776276
N        1.6894191312    1.4050786234    6.4418901235
N        3.2312693182    0.3195906070    5.1053889816
O        4.7548516432   -0.4712351930    3.6108323008
H       -0.2131318894   -1.8231858320    0.3849730607
H       -0.5350378999    0.2647330341    1.6994836597
H        1.8506289989   -3.1789013485    0.6937538569
H       -0.6247714386   -1.7088609936    6.5765199067
H       -1.2491258117    0.4139279698    7.7921006698
H        1.1697930722    0.9662831711    3.3504232302
H        3.5920815330   -2.4319146084    2.3205136581
H        1.5208339596   -1.7798582534    5.3063139324
H        0.3332365631    2.3470902606    7.6769498495
H        3.7872684482    1.1352710835    5.3471100765
25   
Generated by ForceBalance from scan.xyz: Frame 16 of 24
C        0.5191171018   -1.4326479407    1.1212686579
C        0.3724120497   -0.2667591364    1.8811596384
C        1.6548058435   -2.2355959899    1.2823680917
C        0.1028024167   -0.8824752083    6.5859522434
C       -0.3300710316    0.3223015385    7.1557202837
C        1.3467475697    0.0853294949    2.8165054869
C        2.6408772023   -1.8726897795    2.2003776307
C        1.3108174198   -0.9178767950    5.8994118574
C        0.4871471485    1.4429413065    7.0090958835
C        2.4846632046   -0.7193219486    2.9837414106
C        2.0381383497    0.2806716919    5.7778863382
C        3.5964718817   -0.3415530877    3.9129358782
N        1.6432296151    1.4361844253    6.3286949351
N        3.2779944567    0.3221891201    5.1226369661
O        4.7593367199   -0.6271702456    3.6652057509
H       -0.2461891692   -1.7114728367    0.4014398636
H       -0.5011600359    0.3654437782    1.7468669514
H        1.7729278656   -3.1372884832    0.6873792003
H       -0.4887144279   -1.7883549468    6.6895508810
H       -1.2627335929    0.3882279543    7.7072940282
H        1.2264471587    0.9902164180    3.4036274954
H        3.5396302866   -2.4697784240    2.3219660426
H        1.6891719156   -1.8390631529    5.4700788890
H        0.2042042448    2.3969991290    7.4509389032
H        3.7273414390    1.2272785275    5.2374447051
25   
Generated by ForceBalance from scan.xyz: Frame 17 of 24
C        0.5087929009   -1.3623394154    1.0859937773
C        0.3891344663   -0.2064015518    1.8653259958
C        1.6166218124   -2.2038351886    1.2462351770
C        0.1855973337   -0.9222949943    6.6596095436
C       -0.3180489028    0.2941665044    7.1399363520
C        1.3630725849    0.1007242857    2.8167874165
C        2.6014681687   -1.8890292782    2.1821614375
C        1.3951564118   -0.9374748811    5.9755109973
C        0.4311841037    1.4473153196    6.9074172377
C        2.4738325548   -0.7422258669    2.9819229680
C        2.0524165929    0.2894709529    5.7649115267
C        3.5837097835   -0.4220880220    3.9336461885
N        1.5868157802    1.4586536882    6.2260191768
N        3.2863313810    0.3469473752    5.1027856318
O        4.7181296910   -0.8336016218    3.7533771750
H       -0.2565756489   -1.6048058403    0.3531637126
H       -0.4640811486    0.4535194001    1.7338817628
H        1.7127553130   -3.0990522646    0.6376934859
H       -0.3532162546   -1.8507411209    6.8300202965
H       -1.2544153221    0.3459310696    7.6866695451
H        1.2614155929    0.9980444487    3.4184503835
H        3.4773627857   -2.5183016054    2.3074322439
H        1.8289701970   -1.8642037383    5.6149750341
H        0.0900209612    2.4134354830    7.2760640078
H        3.6310516830    1.3038038824    5.0705414590
25   
Generated by ForceBalance from scan.xyz: Frame 18 of 24
C        1.5463580978   -1.3499772533   -0.1085582538
C        0.8043869344   -0.3880578239    0.5845665599
C        2.5177089800   -2.1072791771    0.5612603295
C        0.2901959730   -0.5575225618    7.9200443863
C        0.5770436685    0.6155750991    8.6312341650
C        1.0318178531   -0.1777760871    1.9468522427
C        2.7468590890   -1.9010783104    1.9197155169
C        0.6658256941   -0.6563228129    6.5853955280
C        1.2405168533    1.6392581205    7.9568143719
C        2.0068056948   -0.9317389305    2.6202444429
C        1.3348667046    0.4353624694    6.0042531190
C        2.2785668398   -0.7385499759    4.0698759384
N        1.6210876535    1.5586010575    6.6725642675
N        1.6810267808    0.4507656530    4.6333349560
O        3.0051703274   -1.4776732251    4.7130204977
H        1.3680574640   -1.5126419186   -1.1685326149
H        0.0472995865    0.1932763641    0.0651991732
H        3.0924640638   -2.8541893241    0.0202313681
H       -0.2240258658   -1.3852506522    8.4017526378
H        0.2975392776    0.7317887449    9.6738077100
H        0.4551056981    0.5558501984    2.5000132324
H        3.4935697363   -2.4766712349    2.4580473161
H        0.4585930963   -1.5504598069    6.0069524192
H        1.4876326167    2.5695649764    8.4657883836
H        2.2906684510    1.2595098308    4.5030605640
25   
Generated by ForceBalance from scan.xyz: Frame 19 of 24
C        1.6985836619   -1.2276515232   -0.1830938556
C        0.8975982244   -0.3074216210    0.5011003130
C        2.6045221603   -2.0319018294    0.5217107782
C        0.3937410314   -0.5246553889    8.0934480638
C        0.6730867592    0.7123694201    8.6894777246
C        1.0024033114   -0.1855966511    1.8888980582
C        2.7106726957   -1.9134271108    1.9061500910
C        0.6750865773   -0.7142642865    6.7450375607
C        1.2333496853    1.7080180781    7.8908424203
C        1.9134774938   -0.9853265527    2.5977194735
C        1.2406034531    0.3574707795    6.0336249508
C        2.0599804267   -0.8882284100    4.0780056529
N        1.5184155836    1.5421271583    6.5903600761
N        1.4876672989    0.2940201553    4.6420807436
O        2.6844463820   -1.7074678346    4.7351498808
H        1.6156327435   -1.3218147286   -1.2628920973
H        0.1884285789    0.3088033127   -0.0450493725
H        3.2248664247   -2.7473742058   -0.0114474902
H       -0.0400901426   -1.3337788543    8.6753510006
H        0.4660693566    0.8980277626    9.7389233738
H        0.3708126228    0.5112868856    2.4301516235
H        3.4045318801   -2.5275155824    2.4719321162
H        0.4788650152   -1.6612616865    6.2556346100
H        1.4717991487    2.6854398271    8.3070340453
H        2.0213546491    1.1309875862    4.4058613802
25   
Generated by ForceBalance from scan.xyz: Frame 20 of 24
C        1.8139204720   -1.1244957221   -0.2094398586
C        0.9801253831   -0.2263252563    0.4648853548
C        2.6558905041   -1.9792522740    0.5140851260
C        0.4980615300   -0.5014639582    8.2117606531
C        0.7360776556    0.7837931118    8.7150738097
C        0.9913492590   -0.1754931381    1.8610401965
C        2.6663458721   -1.9331149242    1.9073340928
C        0.7192071648   -0.7626888398    6.8632740067
C        1.1934802942    1.7569345015    7.8273670677
C        1.8394877751   -1.0253751655    2.5891174791
C        1.1795591184    0.2925865460    6.0581809333
C        1.8876123910   -1.0111061617    4.0819937319
N        1.4151321027    1.5249648951    6.5254049805
N        1.3652071473    0.1676442579    4.6625950150
O        2.3981254293   -1.9138123411    4.7322311680
H        1.8046639385   -1.1627709040   -1.2957518829
H        0.3174614634    0.4276203136   -0.0956552093
H        3.3011406375   -2.6787764251   -0.0106437233
H        0.1445822109   -1.2948743169    8.8652366048
H        0.5752331053    1.0238743930    9.7615824895
H        0.3278204418    0.5030871716    2.3879643048
H        3.3074213070   -2.5896745014    2.4874869037
H        0.5597741729   -1.7483300994    6.4443698151
H        1.3965200744    2.7703788212    8.1695393877
H        1.8149881395    1.0214547153    4.3359694337
25   
Generated by ForceBalance from scan.xyz: Frame 21 of 24
C        1.8868020516   -1.0401368278   -0.1984137996
C        1.0493901491   -0.1397693567    0.4683898771
C        2.6555479096   -1.9541261192    0.5333435968
C        0.6013533190   -0.4873526227    8.3143648877
C        0.7601505683    0.8355998259    8.7434484180
C        0.9870524688   -0.1441746229    1.8641896464
C        2.5901614871   -1.9651455952    1.9262246798
C        0.7872411445   -0.8049022522    6.9716127790
C        1.1045765526    1.7927376648    7.7887884451
C        1.7632750792   -1.0532599887    2.6008663939
C        1.1295448909    0.2397844976    6.0964598035
C        1.7331849002   -1.1086633019    4.0961560853
N        1.2872727846    1.5105246232    6.4918070565
N        1.2815323095    0.0688290364    4.7046440227
O        2.1217546870   -2.0884768621    4.7227956722
H        1.9356018179   -1.0345091521   -1.2842908827
H        0.4399035436    0.5591878342   -0.0981271697
H        3.3029701664   -2.6568510133    0.0155997146
H        0.3374966920   -1.2698069537    9.0212198707
H        0.6244840585    1.1174821371    9.7830921798
H        0.3139884853    0.5365742806    2.3769647629
H        3.1715233299   -2.6708132161    2.5115447877
H        0.6926739601   -1.8192295355    6.6078821161
H        1.2431079314    2.8350688838    8.0712367429
H        1.6402640490    0.9297963111    4.2994572420
25   
Generated by ForceBalance from scan.xyz: Frame 22 of 24
C        1.9450958407   -0.9920800948   -0.1963082572
C        1.1411470755   -0.0600647487    0.4679437491
C        2.6298590756   -1.9705932343    0.5347779470
C        0.7348395984   -0.4826610505    8.3731635593
C        0.7691887897    0.8646844680    8.7487610429
C        1.0311558262   -0.0964695862    1.8604067505
C        2.5146836645   -2.0137436498    1.9240337071
C        0.9150400729   -0.8351597041    7.0375322151
C        0.9870481295    1.8133508235    7.7485456508
C        1.7246296321   -1.0697398888    2.5977113242
C        1.1229695809    0.2044649597    6.1147344708
C        1.6419998977   -1.1720617493    4.0911153886
N        1.1600066157    1.5005843084    6.4582491806
N        1.2728428051    0.0045193674    4.7296852551
O        1.9129149363   -2.2111086100    4.6878470874
H        2.0315650823   -0.9611333687   -1.2793647370
H        0.5936767282    0.6888993194   -0.0979661147
H        3.2501503536   -2.6993609024    0.0197944054
H        0.5722974853   -1.2592498408    9.1161619029
H        0.6346040077    1.1726064576    9.7811356696
H        0.3775314932    0.6112664870    2.3626363537
H        3.0281471451   -2.7712968163    2.5078621338
H        0.9156756198   -1.8654811134    6.7099610897
H        1.0262115244    2.8747049078    7.9883149028
H        1.5164343238    0.8735292118    4.2652122192
25   
Generated by ForceBalance from scan.xyz: Frame 23 of 24
C        1.9698038186   -0.9805897888   -0.1961099164
C        1.2261557621   -0.0016627958    0.4706095894
C        2.5712852567   -2.0148072850    0.5309374502
C        0.8462023104   -0.4766180185    8.4050186706
C        0.7491567997    0.8759631190    8.7485489329
C        1.0953390590   -0.0469452973    1.8609396106
C        2.4335999102   -2.0669448405    1.9179587498
C        1.0463170436   -0.8435226639    7.0757915534
C        0.8596782419    1.8168873293    7.7233072629
C        1.7063389995   -1.0764662417    2.5950902840
C        1.1385878908    0.1895752207    6.1267259127
C        1.5976218656   -1.2010520286    4.0871302466
N        1.0488476368    1.4916767725    6.4388316021
N        1.3145823025   -0.0227665386    4.7493363383
O        1.7676965012   -2.2760335478    4.6602831571
H        2.0730323022   -0.9423732662   -1.2774270284
H        0.7412304743    0.7917939453   -0.0916440953
H        3.1439542824   -2.7807726301    0.0148012394
H        0.7693293815   -1.2469150742    9.1681195541
H        0.5950417403    1.1943891504    9.7749865006
H        0.4842975145    0.7025539223    2.3570639294
H        2.8807496120   -2.8683514976    2.4976474460
H        1.1403051125   -1.8753519261    6.7672736311
H        0.7938929152    2.8823762651    7.9376582703
H        1.4158411945    0.8491651936    4.2428183058
25   
Generated by ForceBalance from scan.xyz: Frame 24 of 24
C        1.8807185640   -1.0173271877   -0.1826616026
C        1.7209109360    0.1803693825    0.5212766467
C        2.0024665810   -2.2240431776    0.5160579666
C        1.2329822089   -0.3763669070    8.4717678455
C        0.6033643557    0.8371570668    8.7675563622
C        1.6681308326    0.1709470103    1.9173733266
C        1.9613259427   -2.2328151860    1.9102372160
C        1.4443496212   -0.7445272735    7.1444533011
C        0.2071566344    1.6424035539    7.6981034302
C        1.7805962330   -1.0378966257    2.6232997944
C        1.0049463562    0.1458215223    6.1492095586
C        1.7540006490   -1.1364316374    4.1226558407
N        0.3991408329    1.3137235381    6.4151150267
N        1.1434357025   -0.0846482060    4.7708654441
O        2.2409433129   -2.1009733558    4.7117227758
H        1.9178691178   -1.0089784468   -1.2688747343
H        1.6445626225    1.1224087009   -0.0149423392
H        2.1331573136   -3.1562962776   -0.0269701832
H        1.5593747671   -1.0380086049    9.2700809498
H        0.4233624178    1.1520438089    9.7908701557
H        1.5763277567    1.1204975941    2.4386963715
H        2.0694186848   -3.1564348161    2.4698633199
H        1.9254459852   -1.6724090064    6.8682884985
H       -0.2872583210    2.5963695641    7.8743414220
H        0.7645528499    0.6763036527    4.2205276243
