28   

C       -0.9833049524    0.3246755977    0.5247986878
C       -2.0371339652   -0.5932154626    0.6245229536
C       -1.7871480837    1.4783774403    2.5038934718
C       -3.9210815156    0.3917739006    3.5397769427
C       -2.8327115626    0.5542535034    2.5911823242
C       -0.8399942985    1.3725399057    1.4595625484
C       -2.9482321933   -0.4587942677    1.6644275079
C       -4.6570454247   -0.7109892841    3.1426344409
C       -5.7902527125   -1.3931287484    3.7610273493
C        1.2183977083    2.2851180817    2.5639528721
C       -0.2032305858    3.7685443166    1.0968166234
C        0.3132173975    2.3463845688    1.3301986922
N       -4.0521948332   -1.2403818388    1.9799114198
O       -6.1773432009   -2.5078616311    3.4361591648
O       -6.3673554432   -0.7124352562    4.7790635940
H       -0.2707996300    0.2182503237   -0.2850699418
H       -2.1398622356   -1.3972305744   -0.0932683174
H       -1.7109085881    2.2658354652    3.2433672968
H       -4.1140127308    1.0008451654    4.4146848363
H        0.6738624625    2.5791233088    3.4662396602
H        2.0730159412    2.9574114988    2.4393284670
H        1.5977765320    1.2673343189    2.7000659174
H       -0.8002622590    4.1136509012    1.9462811312
H       -0.8254446973    3.7976548309    0.1966528755
H        0.6359333219    4.4573372969    0.9582550444
H        0.9173686975    2.0649326956    0.4611192835
H       -4.3628762918   -2.0820052915    1.4985772164
H       -7.0793840842   -1.2903695019    5.0968930162
28   

C       -0.7133916311    0.1358461433    0.8055631625
C       -1.7217632177   -0.8269940022    0.9446585328
C       -1.8730787902    1.5906005869    2.3651029371
C       -4.0728014776    0.5522982142    3.3072384975
C       -2.8701178219    0.6191709803    2.4955885654
C       -0.7708267298    1.3570114418    1.5111301520
C       -2.7889449014   -0.5635892933    1.7940685462
C       -4.6811426212   -0.6639054536    3.0512502774
C       -5.8041141019   -1.3321243718    3.7081728754
C        1.0259662467    2.6540966121    2.6902970448
C       -0.1995637194    3.6653490242    0.7283868555
C        0.3398169170    2.3746358611    1.3496623805
N       -3.8810556322   -1.3594428179    2.1156787514
O       -5.9340257219   -2.5466154377    3.7764410529
O       -6.6617135092   -0.4935791745    4.3355349412
H        0.1217785260   -0.0716389065    0.1465336344
H       -1.6689849974   -1.7645167483    0.4057094911
H       -1.9519575746    2.5119336950    2.9286933770
H       -4.4134883427    1.2930398034    4.0205272935
H        0.3243963454    3.0879399831    3.4090362520
H        1.8564029125    3.3533045479    2.5510275854
H        1.4251006208    1.7243404584    3.1081235394
H       -0.9497299050    4.1284790721    1.3764341439
H       -0.6595813886    3.4498515660   -0.2412688889
H        0.6152739981    4.3791757045    0.5724902141
H        1.0956056917    1.9675680413    0.6695205768
H       -4.0471244945   -2.3155030377    1.8084128412
H       -7.3215326673   -1.0719087100    4.7504227324
28   

C       -0.7356167477    0.1631460894    0.7638257900
C       -1.7495197969   -0.7954576361    0.8921553074
C       -1.8824241107    1.6028489138    2.3464942093
C       -4.0776410552    0.5582784488    3.2905572827
C       -2.8846007119    0.6353561045    2.4663713072
C       -0.7835462149    1.3744669062    1.4868565465
C       -2.8127176502   -0.5377538640    1.7484037275
C       -4.6936213610   -0.6508097569    3.0216005853
C       -5.7700641126   -1.3410629969    3.7408592179
C        1.0201967199    2.6451848306    2.6856937149
C       -0.1934576219    3.6868255864    0.7323970672
C        0.3351824111    2.3855323921    1.3403009131
N       -3.9035681129   -1.3359181234    2.0692355869
O       -5.7641513957   -2.5341678982    4.0049147043
O       -6.7316799683   -0.5177783546    4.2191789376
H        0.0973291330   -0.0407198984    0.1008614423
H       -1.7025037720   -1.7265394184    0.3416553361
H       -1.9531002901    2.5155490308    2.9250133572
H       -4.3981626121    1.2810985079    4.0309472188
H        0.3204400729    3.0767300362    3.4075644944
H        1.8562982545    3.3394853967    2.5560245025
H        1.4112907188    1.7080014804    3.0944491203
H       -0.9424613743    4.1473469661    1.3836525433
H       -0.6520238518    3.4854974292   -0.2409731179
H        0.6266797547    4.3968064501    0.5871180400
H        1.0899042659    1.9806161324    0.6576945009
H       -4.0575153542   -2.2949262544    1.7661975778
H       -7.3383203983   -1.0959750247    4.7086112564
28   

C       -0.7663278958    0.1748857908    0.7297927980
C       -1.7863630048   -0.7780074512    0.8525728402
C       -1.8920184855    1.6020286971    2.3385895577
C       -4.0827710294    0.5567259811    3.2907124850
C       -2.9000516490    0.6399760153    2.4529682409
C       -0.8005185223    1.3769871643    1.4688073712
C       -2.8418408215   -0.5239734927    1.7195325533
C       -4.7088442116   -0.6439031980    3.0121550669
C       -5.7521873969   -1.3441299480    3.7827636174
C        1.0173119868    2.6214655480    2.6753427233
C       -0.1951385122    3.6921677159    0.7371533368
C        0.3257264285    2.3807865905    1.3296479465
N       -3.9331734201   -1.3211616259    2.0417939882
O       -5.6274556102   -2.4655034200    4.2472446862
O       -6.8281848150   -0.5772449052    4.0728144076
H        0.0611884856   -0.0267078133    0.0593752276
H       -1.7488039767   -1.7027491020    0.2908064816
H       -1.9514882537    2.5068979809    2.9305049061
H       -4.3829258615    1.2655453220    4.0527119573
H        0.3235828192    3.0512778752    3.4040221861
H        1.8584000400    3.3104953807    2.5498008197
H        1.4024871123    1.6772305145    3.0733541649
H       -0.9388824248    4.1510243977    1.3955837670
H       -0.6580578479    3.5043986746   -0.2368597266
H        0.6297109311    4.3976785867    0.5968873741
H        1.0752202786    1.9772685858    0.6404853286
H       -4.0855818871   -2.2777850280    1.7321480358
H       -7.3963387414   -1.1375017909    4.6251294288
28   

C       -0.7768438872    0.1898783723    0.7177185889
C       -1.7987256370   -0.7605865708    0.8438374524
C       -1.8750232537    1.6029518772    2.3576181170
C       -4.0580945481    0.5560275521    3.3260618367
C       -2.8850768799    0.6433430735    2.4751305428
C       -0.7965378366    1.3838729721    1.4702344478
C       -2.8413334818   -0.5124186595    1.7279743880
C       -4.6915295561   -0.6365995712    3.0422404410
C       -5.7436563493   -1.3296083416    3.8250237614
C        1.0403624819    2.6128411830    2.6643487210
C       -0.1941722246    3.7035901488    0.7514356406
C        0.3307764475    2.3857310301    1.3257015336
N       -3.9326136013   -1.3080414230    2.0543554614
O       -5.5533278557   -2.3220947437    4.5044438432
O       -6.9332440210   -0.6866195392    3.8338507396
H        0.0405617622   -0.0070436592    0.0336406827
H       -1.7723520884   -1.6788485636    0.2709510157
H       -1.9232329304    2.5016376708    2.9598755654
H       -4.3459050489    1.2592422282    4.0978013550
H        0.3573780238    3.0382502477    3.4056437166
H        1.8816933943    3.3006532226    2.5338437906
H        1.4279829375    1.6641454982    3.0491484578
H       -0.9283568256    4.1583841796    1.4232823053
H       -0.6699081367    3.5255887064   -0.2182316904
H        0.6306160489    4.4083090894    0.6068920729
H        1.0702452759    1.9863373149    0.6234287813
H       -4.0977761333   -2.2546229767    1.7228183504
H       -7.5011956858   -1.2127028083    4.4188603661
28   

C       -0.7385118487    0.1674672520    0.8127292270
C       -1.7400151146   -0.7962541037    0.9890022525
C       -1.7917404236    1.5817060627    2.4813752704
C       -3.9463953113    0.5322985146    3.5148979507
C       -2.7833895537    0.6099235043    2.6476271110
C       -0.7467720280    1.3691834351    1.5529056897
C       -2.7507403802   -0.5532686082    1.9106264006
C       -4.5678453863   -0.6674623433    3.2654296198
C       -5.7607136132   -1.2733499419    3.9280683613
C        1.1331237284    2.6259706338    2.6399737516
C       -0.2262705166    3.7021046735    0.8046904592
C        0.3518826173    2.3911607242    1.3438946959
N       -3.8322787899   -1.3485183070    2.2670606348
O       -5.7207123935   -2.0011817551    4.8993623941
O       -6.9345540505   -0.9397506540    3.3457044557
H        0.0515665312   -0.0229324347    0.0954903939
H       -1.7262978590   -1.7171778050    0.4199748488
H       -1.8327905547    2.4892104533    3.0708121286
H       -4.2585408533    1.2722978212    4.2413779443
H        0.4855684589    3.0352499522    3.4211193006
H        1.9529659375    3.3295392779    2.4646267604
H        1.5590415244    1.6827757487    2.9967651717
H       -0.9255800264    4.1458311051    1.5196944890
H       -0.7561638564    3.5186455485   -0.1354554625
H        0.5778816168    4.4192946798    0.6128140970
H        1.0553581880    2.0059340723    0.5980711459
H       -4.0423105940   -2.2702493531    1.8947915812
H       -7.6152307288   -1.3858598057    3.8739689220
28   

C       -0.7219919226    0.1105199439    0.8982931953
C       -1.7115119441   -0.8564449896    1.1194651412
C       -1.7305619744    1.5416200204    2.5799252229
C       -3.8724605688    0.5156319156    3.6605215502
C       -2.7113796018    0.5672901459    2.7893024120
C       -0.7146071884    1.3226321370    1.6213958903
C       -2.6944629940   -0.6062613382    2.0688052654
C       -4.4942707223   -0.6959417128    3.4531348401
C       -5.8127149268   -1.1594621454    3.9537379226
C        1.2061833870    2.5918990564    2.6107684367
C       -0.2487213590    3.6617949672    0.8465513558
C        0.3633129266    2.3533682405    1.3552390411
N       -3.7770594050   -1.3889813414    2.4489932586
O       -6.0629183745   -1.5071615922    5.0908484677
O       -6.7262838093   -1.3083797066    2.9659846437
H        0.0436315625   -0.0834009269    0.1559274550
H       -1.7143410603   -1.7821852886    0.5581479026
H       -1.7630351753    2.4601975962    3.1525349589
H       -4.2133873070    1.3000131566    4.3250737617
H        0.5942288580    2.9937013528    3.4239053278
H        2.0105618277    3.3024739759    2.3965353122
H        1.6565683880    1.6512434084    2.9433408341
H       -0.9116793218    4.1035229790    1.5965168385
H       -0.8258618513    3.4760101565   -0.0648949163
H        0.5409963624    4.3827272478    0.6130899992
H        1.0302752632    1.9733192298    0.5740602516
H       -4.0511971836   -2.2739050088    2.0316360199
H       -7.5214299841   -1.6447798207    3.4090831990
28   

C       -0.7145442264    0.1353449444    0.9174756758
C       -1.7104423829   -0.8196312566    1.1619474882
C       -1.6902572289    1.5965084623    2.5923874065
C       -3.8328451403    0.6090382497    3.7041335985
C       -2.6779015038    0.6344525681    2.8242174135
C       -0.6872632668    1.3560596590    1.6256133629
C       -2.6801220131   -0.5487357369    2.1192833646
C       -4.4701540256   -0.6024412540    3.5213735214
C       -5.7970469325   -1.0163893167    4.0153400257
C        1.2674459290    2.6031437972    2.5718455007
C       -0.2091093976    3.6897535692    0.8362955229
C        0.3963887479    2.3738931948    1.3340908685
N       -3.7682073312   -1.3141942749    2.5193241893
O       -6.1430820753   -1.0740225870    5.1799780831
O       -6.5899674614   -1.5111454930    3.0338725466
H        0.0404015077   -0.0746447732    0.1685833661
H       -1.7288598603   -1.7518764883    0.6117964072
H       -1.7081476991    2.5224723596    3.1536596547
H       -4.1649085153    1.4092842047    4.3543761876
H        0.6764533716    3.0117566642    3.3970498348
H        2.0753055244    3.3045027128    2.3410105363
H        1.7137416269    1.6574692252    2.8955853230
H       -0.8492036144    4.1422218395    1.5995763668
H       -0.8085157870    3.5104108894   -0.0619578299
H        0.5850253018    4.3995026177    0.5842555866
H        1.0420447873    1.9847097768    0.5396330340
H       -4.0738287496   -2.1900601258    2.1036988765
H       -7.4036024621   -1.7848290184    3.4870310206
28   

C       -0.7278069621    0.1543051103    0.8916008286
C       -1.7332703315   -0.7934370243    1.1252987109
C       -1.6903242707    1.6074923497    2.5809989061
C       -3.8410039543    0.6292100642    3.6840221314
C       -2.6874669159    0.6528679509    2.8021140568
C       -0.6890599756    1.3672854666    1.6124713971
C       -2.7010855161   -0.5231979080    2.0847019985
C       -4.4920259588   -0.5742330348    3.4858596909
C       -5.8049862226   -0.9857437453    3.9977311689
C        1.2738990620    2.5893514814    2.5755286375
C       -0.1869110909    3.7021756696    0.8433865165
C        0.4051408898    2.3772092058    1.3330231119
N       -3.7960130975   -1.2827591995    2.4778260480
O       -6.2134288495   -0.8290928908    5.1335999578
O       -6.5102300072   -1.7244752587    3.1050454276
H        0.0258249882   -0.0553365991    0.1412965281
H       -1.7601707014   -1.7198850158    0.5657793435
H       -1.6993298846    2.5274300837    3.1523365530
H       -4.1618025580    1.4216886257    4.3495086448
H        0.6839262367    2.9975377685    3.4016710972
H        2.0890126598    3.2848661866    2.3526276815
H        1.7103121704    1.6372862908    2.8939506512
H       -0.8260025854    4.1540679022    1.6078667719
H       -0.7844538945    3.5351457476   -0.0584722032
H        0.6143093980    4.4069458927    0.5999579198
H        1.0501640286    1.9882831131    0.5379334026
H       -4.1113383963   -2.1552216233    2.0612611583
H       -7.3260344272   -1.9640506987    3.5737573175
28   

C       -0.7466355784    0.1762058369    0.8547509166
C       -1.7636581451   -0.7639691578    1.0682127077
C       -1.7083523074    1.6183573181    2.5541115390
C       -3.8732862278    0.6455670734    3.6338154792
C       -2.7169820034    0.6714569513    2.7552209853
C       -0.7013946312    1.3796264650    1.5911403602
C       -2.7367416026   -0.4957138737    2.0227981411
C       -4.5359977470   -0.5478606947    3.4122954464
C       -5.8264074028   -0.9786581975    3.9521444807
C        1.2645881879    2.5692327357    2.5890066758
C       -0.1658014923    3.7171252576    0.8543926558
C        0.4067838996    2.3804674099    1.3350607743
N       -3.8394527082   -1.2513670927    2.4016696715
O       -6.2991767223   -0.6495571103    5.0249264598
O       -6.4428462813   -1.9073616195    3.1778524054
H        0.0115510379   -0.0322358450    0.1087165624
H       -1.7946414490   -1.6836631548    0.4978648393
H       -1.7119149321    2.5305252098    3.1378531297
H       -4.1835493818    1.4250116332    4.3195783120
H        0.6704866438    2.9748396425    3.4134571672
H        2.0895966200    3.2581096315    2.3824741609
H        1.6871978331    1.6089754860    2.9013995229
H       -0.8083217155    4.1670036341    1.6171937351
H       -0.7553157439    3.5667069696   -0.0556304561
H        0.6454354638    4.4159717895    0.6276523055
H        1.0561016641    1.9934728264    0.5425316760
H       -4.1510455673   -2.1283052571    1.9909704722
H       -7.2576064950   -2.1259756136    3.6587119535
28   

C       -0.7457237403    0.2194465743    0.8076875780
C       -1.7736454929   -0.7124566757    1.0046718432
C       -1.6918420307    1.6437448638    2.5307573541
C       -3.8616785239    0.6727133667    3.6019861071
C       -2.7110275606    0.7049998728    2.7159450281
C       -0.6872461457    1.4097790262    1.5641786687
C       -2.7442932420   -0.4491949903    1.9630997112
C       -4.5400916984   -0.5068694271    3.3555514157
C       -5.7976079818   -0.9650496595    3.9413779777
C        1.2825649365    2.5720814017    2.5898498276
C       -0.1223950056    3.7464566408    0.8522033513
C        0.4337194845    2.4009958116    1.3270897250
N       -3.8522333540   -1.2015514817    2.3334076266
O       -6.3343521811   -0.5044209199    4.9328328499
O       -6.3257997419   -2.0384445608    3.2996106046
H        0.0110176042    0.0145262350    0.0592174745
H       -1.8140447494   -1.6226204765    0.4198083182
H       -1.6845255147    2.5452681707    3.1307867738
H       -4.1521959253    1.4334918304    4.3168759479
H        0.6860196167    2.9785900103    3.4120636914
H        2.1165062663    3.2536165899    2.3951413341
H        1.6924251735    1.6053658649    2.8992810098
H       -0.7684943928    4.1951759709    1.6126961722
H       -0.7044647084    3.6086534030   -0.0645879919
H        0.6969836616    4.4400508072    0.6390607174
H        1.0864675528    2.0138888716    0.5374420357
H       -4.1586802156   -2.0845062773    1.9313915365
H       -7.1353083488   -2.2456593100    3.7943059207
28   

C       -0.7819208064    0.2344691157    0.7772681737
C       -1.8239822528   -0.6845596055    0.9601120677
C       -1.7179916770    1.6568758030    2.5073602927
C       -3.9008748495    0.7017331899    3.5659915564
C       -2.7512423821    0.7309741301    2.6785071602
C       -0.7109345510    1.4170250774    1.5448238358
C       -2.7965077411   -0.4160165226    1.9151776655
C       -4.5963085683   -0.4641253137    3.3025064698
C       -5.8215452716   -0.9477713425    3.9326791651
C        1.2683494744    2.5402063090    2.5962834169
C       -0.1047018132    3.7504422657    0.8577556588
C        0.4270727770    2.3927637378    1.3253653340
N       -3.9126741848   -1.1597550165    2.2783006321
O       -6.4421167964   -0.3834280649    4.8158495214
O       -6.2440822165   -2.1388322469    3.4365024079
H       -0.0231877948    0.0249678691    0.0320908344
H       -1.8728214265   -1.5897143295    0.3681628139
H       -1.7003998916    2.5519051590    3.1168283280
H       -4.1728547988    1.4494339504    4.3017123098
H        0.6716405769    2.9489501474    3.4172680216
H        2.1141391916    3.2104898242    2.4139886730
H        1.6609878999    1.5648007412    2.9007546936
H       -0.7502607590    4.2022151729    1.6169036664
H       -0.6811956071    3.6292575721   -0.0648795056
H        0.7267778281    4.4333430438    0.6573575010
H        1.0802630124    2.0023527062    0.5377142283
H       -4.2107480093   -2.0525564324    1.8918924751
H       -7.0526793640   -2.3389814248    3.9356150348
28   

C       -0.7961241475    0.2636367175    0.7441758798
C       -1.8469961558   -0.6481161876    0.9122371464
C       -1.7278718973    1.6753414528    2.4853449154
C       -3.9174267811    0.7216335631    3.5317246204
C       -2.7699051582    0.7566560359    2.6417386072
C       -0.7181618064    1.4368744786    1.5252168277
C       -2.8215599446   -0.3814044382    1.8657244863
C       -4.6235517380   -0.4336223820    3.2503700097
C       -5.8116275527   -0.9527619262    3.9237487212
C        1.2650228415    2.5290058554    2.6026025513
C       -0.0832238743    3.7704956919    0.8666824758
C        0.4314298169    2.4029590412    1.3242051036
N       -3.9410956818   -1.1235751958    2.2214240484
O       -6.5321557814   -0.3307616817    4.6834922571
O       -6.1048022821   -2.2325032670    3.5782932042
H       -0.0352219271    0.0550541950    0.0009542252
H       -1.9000629118   -1.5471665016    0.3114143551
H       -1.7041266253    2.5624499114    3.1060765477
H       -4.1739166964    1.4525473246    4.2895040849
H        0.6668138457    2.9359158014    3.4234005595
H        2.1190615518    3.1921427799    2.4330391729
H        1.6453472748    1.5466191633    2.9002084790
H       -0.7298916763    4.2208421481    1.6257369395
H       -0.6540477664    3.6643862514   -0.0613124231
H        0.7565096425    4.4469737955    0.6793744085
H        1.0864582084    2.0138168731    0.5374513283
H       -4.2248758829   -2.0264363860    1.8479989093
H       -6.9119901759   -2.4417483188    4.0759173844
28   

C       -0.8543677821    0.2705901411    0.7190894841
C       -1.9174475948   -0.6291578470    0.8744739634
C       -1.7656375627    1.6684597780    2.4820626716
C       -3.9605413343    0.7219725115    3.5239744369
C       -2.8195508678    0.7613063785    2.6260703617
C       -0.7600268728    1.4309133115    1.5173923239
C       -2.8876375676   -0.3634432132    1.8327079126
C       -4.6860709524   -0.4163111872    3.2232415021
C       -5.8386814728   -0.9680592267    3.9368512601
C        1.2304772017    2.4916716747    2.6157990312
C       -0.0915826000    3.7591641571    0.8785086482
C        0.4036169694    2.3830704010    1.3312494401
N       -4.0131620924   -1.0990709347    2.1828121342
O       -6.6632245739   -0.3301812168    4.5660720401
O       -5.9923493681   -2.3029785315    3.7460841907
H       -0.0964425759    0.0623790400   -0.0272748024
H       -1.9824198311   -1.5190169361    0.2612667339
H       -1.7286526914    2.5450351856    3.1169363616
H       -4.1935891968    1.4336373657    4.3071025170
H        0.6326997563    2.9024056981    3.4349730309
H        2.0941361383    3.1444900723    2.4550987294
H        1.5961719576    1.5029596728    2.9107734115
H       -0.7392272102    4.2116946176    1.6354542410
H       -0.6562820879    3.6653486552   -0.0545487874
H        0.7572434686    4.4271503882    0.7020591606
H        1.0593368712    1.9904317583    0.5468088236
H       -4.2892249311   -2.0071976087    1.8169163177
H       -6.7972736950   -2.5302267484    4.2393460754
28   

C       -0.8858423069    0.2927653141    0.6925459564
C       -1.9633642208   -0.5917284682    0.8353855506
C       -1.7842898025    1.6897344888    2.4627235024
C       -3.9938153491    0.7631082391    3.4915516086
C       -2.8525874645    0.7975639795    2.5941206042
C       -0.7775433620    1.4447078922    1.5011105468
C       -2.9340404345   -0.3189688240    1.7911781730
C       -4.7373286877   -0.3591525146    3.1767644894
C       -5.8680229722   -0.9306431795    3.9184847065
C        1.2223779016    2.4652262346    2.6211063771
C       -0.0672666173    3.7660738232    0.8840764385
C        0.4027092472    2.3791026706    1.3301617608
N       -4.0691424469   -1.0432640573    2.1336474906
O       -6.8039965676   -0.3109462785    4.3891141453
O       -5.8695198272   -2.2870912788    3.9132583877
H       -0.1271524938    0.0786774058   -0.0513784152
H       -2.0382941549   -1.4760258533    0.2153088665
H       -1.7361804769    2.5595476198    3.1060768961
H       -4.2091570816    1.4630294585    4.2900154668
H        0.6258172916    2.8798949396    3.4391763823
H        2.0975893182    3.1050427802    2.4709308241
H        1.5700362406    1.4686842655    2.9115246266
H       -0.7131022939    4.2232571514    1.6397722923
H       -0.6266858554    3.6879247957   -0.0535911809
H        0.7933054599    4.4216988590    0.7185256360
H        1.0575561597    1.9815204373    0.5474804941
H       -4.3399376221   -1.9548161129    1.7732450883
H       -6.6767222169   -2.5342135623    4.3928196184
28   

C       -0.9098017550    0.3064232320    0.6715319019
C       -1.9952833095   -0.5699328765    0.8030155604
C       -1.7986778738    1.6913407222    2.4559782448
C       -4.0162755048    0.7696781885    3.4731167595
C       -2.8750243093    0.8071303661    2.5759327505
C       -0.7926237204    1.4482253283    1.4930577803
C       -2.9648664278   -0.2991400486    1.7604779403
C       -4.7699200906   -0.3396920674    3.1436219910
C       -5.8940696780   -0.9315941741    3.8932503350
C        1.2121719522    2.4421742865    2.6291625903
C       -0.0600420304    3.7678168695    0.8979162299
C        0.3965252703    2.3734738849    1.3345890135
N       -4.1054427093   -1.0185369289    2.0943066134
O       -6.9383429236   -0.3764327842    4.1773857444
O       -5.7369095081   -2.2601902390    4.1098569801
H       -0.1517836836    0.0937513208   -0.0734900771
H       -2.0767757420   -1.4468087028    0.1733057926
H       -1.7435187344    2.5531808068    3.1093882762
H       -4.2207414891    1.4579192805    4.2842844190
H        0.6164299033    2.8557573532    3.4483606743
H        2.0935596597    3.0753439960    2.4871426546
H        1.5499698263    1.4403454550    2.9129621917
H       -0.7053144966    4.2240360216    1.6546770830
H       -0.6161689277    3.7018600640   -0.0426477578
H        0.8065932372    4.4176005835    0.7412299474
H        1.0509845052    1.9765616040    0.5512356171
H       -4.3747298951   -1.9262834831    1.7244816987
H       -6.5493678482   -2.5349184650    4.5644920606
28   

C       -0.9113178007    0.2765611230    0.6598821270
C       -1.9829975571   -0.6182906430    0.7774824302
C       -1.8342180259    1.6325461482    2.4494936844
C       -4.0482813151    0.6699306682    3.4391282235
C       -2.8973684246    0.7304798642    2.5550826737
C       -0.8179025203    1.4132023589    1.4914276871
C       -2.9627614709   -0.3708644109    1.7308311056
C       -4.7772240244   -0.4476294908    3.0966810807
C       -5.9288305161   -1.0575531594    3.8076997447
C        1.1740081696    2.4131362074    2.6410251582
C       -0.1198217153    3.7555265223    0.9387087144
C        0.3566356747    2.3591353068    1.3470712668
N       -4.0952325044   -1.1097987964    2.0481513596
O       -7.0651516508   -0.6275459136    3.8273465415
O       -5.6351677059   -2.2659891574    4.3423825880
H       -0.1454890910    0.0824295293   -0.0822168351
H       -2.0464119781   -1.4908842636    0.1397997681
H       -1.7973149957    2.4902631471    3.1095549360
H       -4.2753548466    1.3544178099    4.2472306758
H        0.5734474606    2.8001562918    3.4696548139
H        2.0455092451    3.0622838773    2.5106609833
H        1.5273546272    1.4107344195    2.9030905942
H       -0.7680095377    4.1891535969    1.7061364697
H       -0.6783703058    3.7003010020   -0.0011092810
H        0.7377691121    4.4193954648    0.7915585178
H        1.0144645029    1.9870628546    0.5543924651
H       -4.3552118271   -2.0071641608    1.6486834038
H       -6.4653519774   -2.5716250505    4.7413056330
28   

C       -0.8240494737    0.2423732422    0.7051994876
C       -1.8651996573   -0.6865417318    0.8315436615
C       -1.7640423765    1.5573581646    2.5165443957
C       -3.9601724292    0.5444208695    3.4978403269
C       -2.7978911906    0.6226209060    2.6296492775
C       -0.7551836666    1.3764581665    1.5425524169
C       -2.8391475829   -0.4757650429    1.7995298137
C       -4.6512399243   -0.5942563146    3.1606607866
C       -5.9479945077   -1.1089150896    3.6923408626
C        1.2355956251    2.4190957455    2.6484577149
C       -0.1534882337    3.7549964821    1.0174771035
C        0.3802932108    2.3661061560    1.3799042322
N       -3.9599162551   -1.2365602309    2.1065485027
O       -7.0409112536   -0.8423953158    3.2349022983
O       -5.8119653844   -1.9249160728    4.7619090154
H       -0.0653547858    0.0794637366   -0.0516032234
H       -1.9136363045   -1.5529609751    0.1842011122
H       -1.7490031576    2.4156830477    3.1766484982
H       -4.2452340146    1.2607033158    4.2584232381
H        0.6475983367    2.7652125274    3.5038054018
H        2.0797799994    3.1011383732    2.5070032626
H        1.6308198958    1.4237292679    2.8750889518
H       -0.7881815542    4.1530270489    1.8148240846
H       -0.7414385328    3.7015487932    0.0956416162
H        0.6775213641    4.4487555573    0.8561760071
H        1.0236700825    2.0335633910    0.5583132400
H       -4.2470323225   -2.0906694258    1.6371366064
H       -6.7170390631   -2.1740434067    5.0072142769
28   

C       -0.7565734614    0.1718833337    0.7436453050
C       -1.7614168679   -0.7935189621    0.8913609728
C       -1.6938017250    1.4439034169    2.5863643267
C       -3.8513081735    0.3746548659    3.5871694686
C       -2.6921729912    0.4740561290    2.7187201649
C       -0.7056261118    1.3039734476    1.5851126638
C       -2.7174366284   -0.6212343771    1.8846689580
C       -4.5177212593   -0.7890634660    3.2618941724
C       -5.8931500848   -1.1982705473    3.6370293352
C        1.2893790311    2.4015221119    2.6223978302
C       -0.2161727353    3.7155060700    1.0797359035
C        0.3825661182    2.3401462161    1.3911265493
N       -3.8197916561   -1.4071008267    2.1971743335
O       -6.8444208643   -1.1888765178    2.8768579809
O       -6.0455216176   -1.4654830851    4.9538481160
H       -0.0151041785    0.0415202065   -0.0361762203
H       -1.8004434503   -1.6544552215    0.2361013352
H       -1.6958846412    2.3021805588    3.2466903209
H       -4.1796932598    1.1135637466    4.3076585753
H        0.7254656309    2.7069783613    3.5089307533
H        2.0998889811    3.1187536533    2.4597635639
H        1.7315257497    1.4179358655    2.8103558683
H       -0.8268313390    4.0775250802    1.9122005154
H       -0.8435620675    3.6575616891    0.1845437012
H        0.5816658307    4.4414702471    0.8943058941
H        1.0003932792    2.0474180213    0.5354885949
H       -4.1322876524   -2.2244287917    1.6799380345
H       -6.9893066200   -1.6616890154    5.0649429334
28   

C       -0.7691644511    0.1772566856    0.7265376766
C       -1.7720044574   -0.7907189945    0.8710612949
C       -1.6868963887    1.4219989472    2.5975075653
C       -3.8344114143    0.3388104427    3.6042226102
C       -2.6833558937    0.4497965017    2.7265411961
C       -0.7097567544    1.2972637866    1.5835172967
C       -2.7172989273   -0.6333259574    1.8769597324
C       -4.5059452877   -0.8219427994    3.2684075845
C       -5.8724523689   -1.2385256555    3.6315096434
C        1.2937124804    2.3854827831    2.6149067574
C       -0.2292880151    3.7154389625    1.1033831336
C        0.3749645677    2.3374947857    1.3919307054
N       -3.8173892698   -1.4228090554    2.1882247052
O       -6.7562650720   -1.4747885331    2.8241463212
O       -6.1252145644   -1.1940851191    4.9597222935
H       -0.0362786940    0.0586673464   -0.0632079239
H       -1.8182037587   -1.6419909505    0.2037225920
H       -1.6825755848    2.2709238632    3.2698145552
H       -4.1575858065    1.0678778214    4.3371482717
H        0.7381029171    2.6792809569    3.5105716911
H        2.1014375381    3.1060126872    2.4530004760
H        1.7392260289    1.4004427698    2.7865656844
H       -0.8325449050    4.0658944930    1.9461373574
H       -0.8652422037    3.6673399928    0.2136631880
H        0.5653511915    4.4452241075    0.9192251704
H        0.9848725499    2.0564322418    0.5267549815
H       -4.1463706764   -2.2244944444    1.6559568350
H       -7.0623923643   -1.4304626362    5.0466819426
28   

C       -0.7884181201    0.2093549417    0.6975641408
C       -1.7959288158   -0.7548497426    0.8340214415
C       -1.6885133011    1.4326581271    2.5912664497
C       -3.8314042601    0.3422325033    3.6013901004
C       -2.6895748126    0.4641950086    2.7126162262
C       -0.7177505201    1.3166476314    1.5700765068
C       -2.7343874667   -0.6065549323    1.8475629600
C       -4.5104849702   -0.8114995654    3.2529426883
C       -5.8466392577   -1.2737979431    3.6447136256
C        1.2951706591    2.3803272637    2.6098680666
C       -0.2234900813    3.7366009571    1.1173764559
C        0.3732798868    2.3520103557    1.3885214171
N       -3.8337230325   -1.3972502640    2.1577500204
O       -6.6656075215   -1.7429806067    2.8685574269
O       -6.1649221454   -1.0150743447    4.9343067005
H       -0.0601188844    0.0972785952   -0.0973578782
H       -1.8500748038   -1.5971922395    0.1560086340
H       -1.6745771699    2.2711446670    3.2764286093
H       -4.1392830700    1.0540091013    4.3576736588
H        0.7436839762    2.6675629852    3.5101892454
H        2.1070892741    3.0975101887    2.4541729600
H        1.7348764164    1.3906390133    2.7693719336
H       -0.8231758715    4.0803681721    1.9654267242
H       -0.8614234792    3.7024873079    0.2284302143
H        0.5749842666    4.4639143994    0.9402126403
H        0.9796565644    2.0772319371    0.5188560184
H       -4.1695404915   -2.1966744079    1.6254191579
H       -7.0798567993   -1.3226919919    5.0349741446
28   

C       -0.8249937801    0.2336647911    0.6651406501
C       -1.8405541739   -0.7228580241    0.7952305955
C       -1.7050943630    1.4431579447    2.5771808269
C       -3.8450890314    0.3524985424    3.5947048168
C       -2.7140906809    0.4822298264    2.6926474706
C       -0.7399329658    1.3298231677    1.5503353804
C       -2.7725197752   -0.5780628898    1.8151477120
C       -4.5345213537   -0.7925578969    3.2365307664
C       -5.8312240936   -1.3082785185    3.6743937770
C        1.2844932563    2.3628625529    2.6000933798
C       -0.2199580492    3.7474759017    1.1191753511
C        0.3624381687    2.3546974063    1.3783718573
N       -3.8717412944   -1.3676556599    2.1278416300
O       -6.5694137211   -1.9889497970    2.9756171731
O       -6.2112832956   -0.8887821473    4.9039447558
H       -0.1006345231    0.1233836432   -0.1336214635
H       -1.9043949779   -1.5580722174    0.1092698957
H       -1.6787714392    2.2722038811    3.2733853375
H       -4.1314377647    1.0455997140    4.3764731217
H        0.7363078445    2.6487845603    3.5028365917
H        2.1042412807    3.0723698950    2.4503424929
H        1.7134258320    1.3671886594    2.7515462048
H       -0.8168245601    4.0894740293    1.9699363034
H       -0.8575678816    3.7275623522    0.2295738004
H        0.5859894903    4.4681669852    0.9489821808
H        0.9662712876    2.0809397134    0.5066172819
H       -4.2077484637   -2.1746010669    1.6063239372
H       -7.0918720142   -1.2733452287    5.0404474492
28   

C       -0.8938218406    0.2331738682    0.6177339673
C       -1.9224631755   -0.7097279417    0.7436270096
C       -1.7428944588    1.4328316116    2.5500684663
C       -3.8808115058    0.3506523709    3.5824137867
C       -2.7646285525    0.4850289755    2.6621499116
C       -0.7863714020    1.3171809476    1.5153552263
C       -2.8447724107   -0.5636519485    1.7720096692
C       -4.5873763992   -0.7815025797    3.2157750104
C       -5.8371037687   -1.3473621823    3.7156515751
C        1.2524705944    2.3143358183    2.5751193402
C       -0.2276699378    3.7265020908    1.0955789747
C        0.3331479511    2.3245031962    1.3510571927
N       -3.9459852033   -1.3478279567    2.0906559316
O       -6.4818163694   -2.2064048139    3.1287967693
O       -6.2721532249   -0.8068812860    4.8781515657
H       -0.1756147494    0.1206875607   -0.1862581703
H       -2.0018470343   -1.5373118306    0.0500706145
H       -1.6977150609    2.2515371880    3.2574580663
H       -4.1360356660    1.0220737410    4.3934064659
H        0.7073873567    2.6069196216    3.4775825972
H        2.0839887447    3.0108211917    2.4291279216
H        1.6649568037    1.3114799092    2.7249219618
H       -0.8228527533    4.0731277171    1.9456723591
H       -0.8622068863    3.7193692259    0.2035933806
H        0.5893347078    4.4360212822    0.9313507129
H        0.9352457066    2.0444308180    0.4801083116
H       -4.2799069347   -2.1665614103    1.5859726363
H       -7.1077903475   -1.2616519142    5.0702537372
28   

C       -0.9243407810    0.2958053559    0.5687234674
C       -1.9643522957   -0.6366653997    0.6773547152
C       -1.7570564619    1.4679704827    2.5249554779
C       -3.8931746733    0.3776671001    3.5531632264
C       -2.7894726105    0.5299666743    2.6205369788
C       -0.8026442930    1.3604962530    1.4873873765
C       -2.8835064962   -0.4996894061    1.7097723199
C       -4.6110752842   -0.7411827637    3.1681267914
C       -5.8023309394   -1.3745190379    3.7238753191
C        1.2434307365    2.3144774277    2.5756693997
C       -0.2071458208    3.7656754326    1.1045759905
C        0.3328093463    2.3532285884    1.3453585772
N       -3.9850126900   -1.2852258517    2.0236158436
O       -6.3227331952   -2.3789757096    3.2558742072
O       -6.3066021894   -0.7605988615    4.8201026954
H       -0.2069162334    0.1888550941   -0.2367205679
H       -2.0524749406   -1.4516368461   -0.0299509575
H       -1.6990198141    2.2699879053    3.2503019259
H       -4.1200437369    1.0162502576    4.3983944737
H        0.6968186912    2.6040231082    3.4781685335
H        2.0859885335    3.0004888032    2.4439992499
H        1.6404324725    1.3040072287    2.7159172293
H       -0.8047028831    4.1082078024    1.9546836677
H       -0.8345243127    3.7787941522    0.2076192046
H        0.6204737898    4.4663632892    0.9564661672
H        0.9375506630    2.0760173920    0.4753267309
H       -4.3057768995   -2.1159095621    1.5298375904
H       -7.0823212967   -1.2878318348    5.0697105677
