19   

C        5.6929280741    1.6953761336    0.7982521766
C        4.4481054936    1.8955345971    0.2875141819
C        5.3732873779    0.0755162514   -0.6115990430
C        4.9166906812   -1.4365495204   -2.4760919078
C        4.0951603921   -0.4291882698   -3.2746347154
C        6.6435257503   -2.0279825554   -0.8302293876
N        6.2399641845    0.5507951517    0.2450945816
N        4.2279689168    0.8697760936   -0.6190509066
N        5.6143152192   -1.1089326371   -1.3224836136
O        4.9361914834   -2.5756203117   -2.9329356719
H        6.1767915828    2.3313862910    1.5304466829
H        3.7729046560    2.6970082673    0.5644108728
H        3.9438941327   -0.7767273992   -4.3004242108
H        4.5002969104    0.5830308107   -3.2021062283
H        3.0979696367   -0.3901591030   -2.8309455962
H        6.3418965525   -2.3799616561    0.1614588888
H        7.5559051190   -1.4819511944   -0.5701821835
H        6.8409958110   -2.8793637557   -1.4891865350
H        3.3870417831    0.6855251682   -1.1531147082
19   

C        5.5840883896    1.8645697922    0.8711432138
C        4.3140243451    1.9533813178    0.3902714253
C        5.3624324283    0.1998571563   -0.5022440921
C        4.8780776198   -1.4233730131   -2.2495734966
C        4.0615468860   -0.4803542781   -3.1270915905
C        6.7434315092   -1.8387214429   -0.7028325523
N        6.2106803779    0.7603095178    0.3200599277
N        4.1551186573    0.8965360839   -0.4933124388
N        5.6782826483   -0.9723307117   -1.2065249782
O        4.7801427372   -2.6183592180   -2.5110049425
H        6.0323289988    2.5499040443    1.5812978320
H        3.5826639491    2.7026709593    0.6708037324
H        3.9944471090   -0.8835987807   -4.1412677811
H        4.4070231099    0.5554478203   -3.0838788231
H        3.0235875356   -0.5283662307   -2.7898378919
H        6.3895438604   -2.2885673153    0.2304481648
H        7.6041699426   -1.2601175417   -0.3530902020
H        7.0078598307   -2.6482216920   -1.3907971057
H        3.3198246057    0.6355159801   -1.0044058489
19   

C        5.5882443130    1.8963117364    0.8647518386
C        4.2982099671    1.9112807224    0.4297712168
C        5.4151098978    0.2256854549   -0.5053914305
C        4.8711577468   -1.4411266316   -2.1636188214
C        4.0894160666   -0.5358808793   -3.1089234467
C        6.8454185518   -1.7759176600   -0.7223042860
N        6.2598415989    0.8332436472    0.2858306915
N        4.1694134765    0.8490844425   -0.4524468890
N        5.7751718560   -0.9236080095   -1.2311708678
O        4.6331686674   -2.6415839076   -2.2340100888
H        6.0202382047    2.6047859179    1.5621929342
H        3.5344983886    2.6155409141    0.7392881744
H        4.1241099000   -0.9686176221   -4.1123418810
H        4.4142593634    0.5074564661   -3.0872751523
H        3.0243839476   -0.6419794039   -2.8890907219
H        6.4934302577   -2.2264681284    0.2115817198
H        7.7063906112   -1.1888564621   -0.3874677586
H        7.1002604945   -2.5918115602   -1.4062845902
H        3.3334589665    0.5401548554   -0.9356655447
19   

C        5.5870945151    1.8258089475    0.8955770986
C        4.2813870207    1.8772574125    0.5118637283
C        5.3471178713    0.2494919533   -0.5699617350
C        4.6429329038   -1.3052398148   -2.2444158041
C        3.9640194287   -0.3478339839   -3.2155837417
C        6.6819585714   -1.7898858603   -0.9228441566
N        6.2280565804    0.7986961212    0.2239248472
N        4.1096009975    0.8759793687   -0.4322520043
N        5.6677691131   -0.8520849436   -1.3887237520
O        4.1975095308   -2.4435198834   -2.1805191631
H        6.0508018645    2.4847154309    1.6206871064
H        3.5358581497    2.5640320960    0.8959306896
H        4.0874692637   -0.7590846480   -4.2208348666
H        4.3500913287    0.6736249154   -3.1648367952
H        2.8791971148   -0.4247061852   -3.1086118408
H        6.3197446916   -2.2394439405    0.0078194929
H        7.5910842065   -1.2709370890   -0.6029383982
H        6.8602098376   -2.6018460444   -1.6349829670
H        3.2533821846    0.6022909184   -0.9017390593
19   

C        5.6167524671    1.8341441797    0.8670362746
C        4.2940738037    1.8439802552    0.5414421184
C        5.3603596102    0.2449684055   -0.5795970216
C        4.5605545391   -1.3186584418   -2.1670368232
C        3.9562415733   -0.4332852220   -3.2473882141
C        6.6712591184   -1.7994191606   -0.9349261163
N        6.2594758796    0.8240559017    0.1712306776
N        4.1112093253    0.8340951344   -0.3914470278
N        5.6770593074   -0.8496166292   -1.4150290401
O        3.9705948559   -2.3516530787   -1.8858742668
H        6.0911925217    2.5102159393    1.5690136627
H        3.5451110252    2.5080507463    0.9573043000
H        4.2494185741   -0.8679242625   -4.2064059441
H        4.3377724457    0.5908864016   -3.2227219495
H        2.8681365761   -0.5334009960   -3.2703831274
H        6.3076498212   -2.2220764107    0.0079005606
H        7.5990180144   -1.2947385512   -0.6471437882
H        6.8185418212   -2.6306753121   -1.6314588784
H        3.2438941545    0.5275353384   -0.8194404259
19   

C        5.3804364780    1.5825642812    0.9294686511
C        4.0303364124    1.5981082144    0.7359481419
C        4.9345603535   -0.1842832973   -0.2290727010
C        4.0964539167   -1.4620856498   -2.0321278832
C        4.5373292676   -1.1975297985   -3.4627174067
C        6.3991166574   -1.8948961882   -1.1562644675
N        5.9269460126    0.4604368859    0.3264215013
N        3.7281046761    0.4681686880   -0.0101833000
N        5.0462206217   -1.3963375084   -0.9376130915
O        2.9913703967   -1.9307127146   -1.8440063064
H        5.9412648020    2.3322089300    1.4760398654
H        3.3426167842    2.3459703706    1.1135855419
H        5.1768026344   -2.0253028911   -3.7772929617
H        5.2125939512   -0.3385422722   -3.4982964331
H        3.6850171867   -1.1409502357   -4.1450699141
H        6.9328003299   -1.9984101737   -0.2056568494
H        6.9725678087   -1.1361720694   -1.6997578857
H        6.4068103162   -2.8111748314   -1.7546395972
H        2.8233646625    0.1182426416   -0.3185241309
19   

C        5.4548813931    1.6986102573    1.1022064128
C        4.1062724569    1.7467499723    0.9038042994
C        4.9817401502   -0.0178923634   -0.1203545616
C        4.0961799830   -1.3096867484   -1.9090743072
C        4.4991369334   -1.4027695048   -3.3730277253
C        6.4279577603   -1.7187750069   -1.1083690687
N        5.9835457166    0.5885752155    0.4615714878
N        3.7879121601    0.6495666775    0.1169135154
N        5.0813666212   -1.2066627918   -0.8747583365
O        2.9405227524   -1.5771159500   -1.6213254392
H        6.0271566356    2.4176151240    1.6773141686
H        3.4302131374    2.4938989736    1.3030275663
H        4.9652923812   -2.3774258948   -3.5336775760
H        5.3033073103   -0.6964885942   -3.5949326205
H        3.6313209038   -1.3309307280   -4.0341446583
H        6.9821790453   -1.8037351180   -0.1676306665
H        6.9926914193   -0.9695168277   -1.6735844515
H        6.4271588069   -2.6436441106   -1.6928931165
H        2.8815680283    0.3229585095   -0.2142498475
19   

C        5.4759954922    1.6626678556    1.2589487274
C        4.1336563343    1.7522944351    1.0358536324
C        4.9988616880    0.0445760554   -0.0923241671
C        4.1121311346   -1.2190488885   -1.9218711512
C        4.4689212708   -1.5573894477   -3.3624658609
C        6.4536691631   -1.6111736477   -1.1595825577
N        5.9980839648    0.5899788349    0.5524014357
N        3.8143890892    0.7193419473    0.1671519398
N        5.1095229229   -1.0878165116   -0.9286517277
O        2.9308420519   -1.3103564484   -1.6040316861
H        6.0486960368    2.3277241857    1.8952680250
H        3.4622295943    2.4838507459    1.4700192374
H        4.7745528451   -2.6058236779   -3.3926246634
H        5.3610438002   -1.0136576725   -3.6833606764
H        3.6048907957   -1.4504162869   -4.0238223603
H        6.9996468717   -1.7207529654   -0.2165335385
H        7.0315121529   -0.8481179917   -1.6920959651
H        6.4597382600   -2.5183715075   -1.7706735359
H        2.9130781520    0.4320914234   -0.2127094015
19   

C        5.4766293488    1.5954059202    1.3815197430
C        4.1397475776    1.7190640142    1.1451483446
C        5.0035037291    0.0884007536   -0.0974115213
C        4.1268874998   -1.1481314393   -1.9718924009
C        4.4375335553   -1.6629191923   -3.3712897020
C        6.4771597245   -1.5040686748   -1.2417340703
N        5.9975193871    0.5731330572    0.6029656665
N        3.8246087824    0.7587149678    0.1958730187
N        5.1323807022   -0.9753308119   -1.0157764821
O        2.9373507385   -1.0866521317   -1.6585741076
H        6.0467138778    2.2028893992    2.0751570443
H        3.4693497897    2.4253703237    1.6205876478
H        4.6957849906   -2.7212745325   -3.2876959084
H        5.3497373544   -1.2063360052   -3.7634844880
H        3.5691366472   -1.5820163382   -4.0306613263
H        7.0148514419   -1.6345652601   -0.2965633965
H        7.0646443041   -0.7275405736   -1.7431972296
H        6.4963469161   -2.3947359239   -1.8758149841
H        2.9294377571    0.5126571201   -0.2262379659
19   

C        5.4664776639    1.5445104123    1.4641566479
C        4.1308493349    1.6820709155    1.2312104387
C        5.0025798761    0.1387882149   -0.1175211257
C        4.1332255639   -1.0898058520   -2.0166086406
C        4.3987580185   -1.7522261947   -3.3630147693
C        6.5009761312   -1.3795761160   -1.3309643430
N        5.9920811573    0.5792222354    0.6189759339
N        3.8227047333    0.7875877134    0.2178258448
N        5.1519447675   -0.8567666889   -1.1037988212
O        2.9480130095   -0.8983332830   -1.7273491415
H        6.0328850040    2.1039634840    2.1999261376
H        3.4571181322    2.3552738178    1.7480597396
H        4.6694991012   -2.7945492916   -3.1780015542
H        5.3000284956   -1.3426668511   -3.8259547786
H        3.5148365646   -1.7292569657   -4.0061679774
H        7.0339053019   -1.5284623945   -0.3858114763
H        7.0911775256   -0.5855882844   -1.8006978653
H        6.5389508860   -2.2536951854   -1.9860983848
H        2.9323535683    0.5725643771   -0.2311996211
19   

C        5.4584049832    1.5139474907    1.5660234851
C        4.1224041881    1.6540459492    1.3389339529
C        5.0128609120    0.2138161471   -0.1109250720
C        4.1515105607   -0.9993405249   -2.0336739426
C        4.3813905751   -1.7860527795   -3.3190203503
C        6.5367956048   -1.2205088252   -1.3928245387
N        5.9956001778    0.6152569352    0.6571855929
N        3.8265763995    0.8274698701    0.2661960407
N        5.1822652391   -0.7089122115   -1.1610748494
O        2.9780470428   -0.6921054229   -1.7921698050
H        6.0175242500    2.0268459396    2.3402881442
H        3.4408883920    2.2861972340    1.8958164881
H        4.6925627192   -2.7984838243   -3.0502384958
H        5.2574485189   -1.4033484935   -3.8484862081
H        3.4804765685   -1.8280480326   -3.9371966794
H        7.0681765053   -1.3869592763   -0.4497680187
H        7.1249646787   -0.4093668163   -1.8346289780
H        6.5934873007   -2.0776222634   -2.0679480182
H        2.9418060830    0.6406971678   -0.2062364018
19   

C        5.4753038618    1.2646262340    1.7897323259
C        4.1454421852    1.4151636558    1.5379234576
C        5.0971971470    0.1444168325   -0.0302803070
C        4.2625541102   -0.9875234416   -2.0191965860
C        4.4821106622   -1.8645282235   -3.2478941297
C        6.6530057305   -1.1578679129   -1.4339387773
N        6.0497766303    0.4732965067    0.8072581259
N        3.8927436300    0.7025377052    0.3762954592
N        5.2977519809   -0.6613313039   -1.1682437690
O        3.1025830129   -0.5960474729   -1.8377541648
H        6.0051202049    1.6974249001    2.6306527673
H        3.4401860781    1.9810029579    2.1350728443
H        5.0198440572   -2.7734311321   -2.9682428145
H        5.2007140528   -1.3727756967   -3.9078782105
H        3.5462486202   -2.0728722652   -3.7735780873
H        7.4207172808   -0.7801442686   -0.7516095127
H        6.9267805711   -0.9858805186   -2.4789051823
H        6.6411106813   -2.2515873228   -1.4006950498
H        3.0257186720    0.5631239433   -0.1432653200
19   

C        5.3548774128    1.1777281940    1.8171475708
C        4.0209754274    1.3243188272    1.5819313089
C        4.9862431872    0.1951018818   -0.0800861869
C        4.1543070336   -0.9131748721   -2.0775427053
C        4.3421161498   -1.9000326745   -3.2241396773
C        6.5750743141   -0.9711521196   -1.5418705784
N        5.9391695680    0.4748125486    0.7746852204
N        3.7735480273    0.6973594558    0.3706435977
N        5.2061978404   -0.5191733798   -1.2733950754
O        3.0174366820   -0.4424698669   -1.9521385410
H        5.8807241893    1.5539032102    2.6872870647
H        3.3100600853    1.8340914197    2.2214070063
H        4.9350873443   -2.7571281946   -2.8954246473
H        4.9913524175   -1.4378001505   -3.9717469148
H        3.3890283643   -2.1778158011   -3.6824107183
H        7.3104761062   -0.2201778196   -1.2341803206
H        6.7459638950   -1.3401329943   -2.5558974805
H        6.7958862431   -1.7878793116   -0.8466659331
H        2.9081046508    0.5897293776   -0.1588052873
19   

C        5.3374115680    1.0761817402    1.8014548649
C        4.0035158815    1.2186636694    1.5616180644
C        5.0021074956    0.2158470596   -0.1582102332
C        4.1709624511   -0.8656190422   -2.1609692745
C        4.3416802421   -1.9584873787   -3.2091288586
C        6.6048145052   -0.8583061929   -1.6748191889
N        5.9433733166    0.4533199897    0.7210727571
N        3.7766632692    0.6688270365    0.3093311226
N        5.2372883385   -0.4140378111   -1.3967054875
O        3.0677007869   -0.3118116205   -2.1254978946
H        5.8484950112    1.4016475636    2.7003584832
H        3.2797024701    1.6783138210    2.2242385520
H        4.9648796429   -2.7701241373   -2.8254403626
H        4.9434509569   -1.5514311378   -4.0253010978
H        3.3795556049   -2.2851104943   -3.6130155576
H        7.3388921195   -0.1157540444   -1.3443003479
H        6.7675521679   -1.1930535163   -2.7025286416
H        6.8223394258   -1.7020972484   -1.0114186429
H        2.9191488942    0.5926040235   -0.2378832670
19   

C        5.3152078096    0.9828538281    1.8224465587
C        3.9833722214    1.1261810248    1.5693418987
C        5.0216269830    0.2491359760   -0.1919560992
C        4.1908817053   -0.8063693267   -2.1929669566
C        4.3489317071   -2.0053066988   -3.1189131796
C        6.6377629282   -0.7310077583   -1.7556514378
N        5.9469511362    0.4395130828    0.7141965346
N        3.7821857301    0.6564781874    0.2803182290
N        5.2720326134   -0.2919774950   -1.4709403050
O        3.1267624859   -0.1904223802   -2.2653429500
H        5.8072208659    1.2546239652    2.7493930793
H        3.2445474031    1.5368712065    2.2474396322
H        4.9843743849   -2.7700245306   -2.6652385813
H        4.9214408590   -1.6801419738   -3.9908666230
H        3.3806180482   -2.3700470574   -3.4721271607
H        7.3703476496    0.0053909901   -1.4084816943
H        6.7916761809   -1.0364713740   -2.7942657742
H        6.8528118642   -1.5967140723   -1.1201157823
H        2.9346074444    0.6150538610   -0.2853291722
19   

C        5.2698191529    0.8527211996    1.8368867429
C        3.9457669202    1.0198636003    1.5564722224
C        5.0321349936    0.2690784028   -0.2306364137
C        4.2096191696   -0.7350090991   -2.2420359946
C        4.3503009380   -2.0393173904   -3.0140955902
C        6.6652705587   -0.6167860152   -1.8259276778
N        5.9327011758    0.3893503462    0.7106886784
N        3.7791109840    0.6461255587    0.2312880249
N        5.3026255423   -0.1718376363   -1.5445324477
O        3.1997644851   -0.0703575430   -2.4500358144
H        5.7352060851    1.0545614124    2.7949387089
H        3.1898531805    1.3858893480    2.2413868945
H        4.9566190901   -2.7599360162   -2.4594914166
H        4.9395598841   -1.8336737455   -3.9107720120
H        3.3779039226   -2.4158582050   -3.3427975047
H        7.3987601524    0.1091260198   -1.4592058909
H        6.8167986908   -0.8930836165   -2.8733922321
H        6.8691008344   -1.5031398916   -1.2155500020
H        2.9468094546    0.6571262362   -0.3572005171
19   

C        5.2038220333    0.6976764362    1.7951529506
C        3.8910587236    0.8990896108    1.4844965234
C        5.0275299842    0.2598372261   -0.3124920045
C        4.2258887271   -0.7005713289   -2.3340042161
C        4.3350265840   -2.1148978332   -2.8835266104
C        6.6849684379   -0.5340525483   -1.9198879689
N        5.8988593471    0.3052830629    0.6615603570
N        3.7624161353    0.6189887897    0.1319618524
N        5.3228605458   -0.0853243407   -1.6489074038
O        3.2847938943   -0.0186872719   -2.7070836215
H        5.6394407606    0.8283011785    2.7792209318
H        3.1179674630    1.2282317831    2.1690859973
H        4.8285632384   -2.7696535508   -2.1606972287
H        5.0301060260   -2.0974426791   -3.7259128866
H        3.3711842247   -2.4800412899   -3.2482444732
H        7.4168521346    0.1801125531   -1.5278640542
H        6.8422243208   -0.7765373378   -2.9751235359
H        6.8745835880   -1.4430859985   -1.3389580431
H        2.9472634068    0.6860611090   -0.4753569652
19   

C        5.1711055011    0.5548041624    1.7595142215
C        3.8682917344    0.7917335032    1.4323885562
C        5.0420929564    0.2670736475   -0.3766954571
C        4.2682730954   -0.6372355837   -2.4185950805
C        4.3024362276   -2.1332009234   -2.6865816031
C        6.7243782235   -0.4222843583   -1.9973721736
N        5.8897618246    0.2353189831    0.6180492991
N        3.7687764691    0.6083847219    0.0607786025
N        5.3609683067    0.0182893626   -1.7258755264
O        3.4186085757    0.0309625802   -2.9735878693
H        5.5836294367    0.6118929494    2.7604163965
H        3.0828276793    1.0822155530    2.1205270183
H        4.6762394765   -2.6679274736   -1.8094039102
H        5.0718380343   -2.3229783815   -3.4383321520
H        3.3471067331   -2.4963373181   -3.0748077454
H        7.4503282188    0.2922852303   -1.5954125740
H        6.8807901567   -0.6422543105   -3.0579506192
H        6.9184499729   -1.3411192366   -1.4334856332
H        2.9660467645    0.7318401227   -0.5527818965
19   

C        4.9363403784    2.1303052888   -0.1059969663
C        4.7547490843    1.4229752291    1.0432623353
C        5.1177616214    0.0444428457   -0.6672679184
C        5.7124102520   -0.9309080220   -2.7453680323
C        4.7864206825   -0.2725074703   -3.7580299614
C        5.8034440898   -2.3112989755   -0.6868961980
N        5.1428623619    1.2562068593   -1.1588999842
N        4.8722498835    0.0831572485    0.7018775996
N        5.2667211792   -1.1554139043   -1.3916762686
O        6.8553095542   -1.1594481910   -3.0880408056
H        4.9170493158    3.2112657816   -0.1855396621
H        4.5523379358    1.8459386925    2.0204375513
H        4.5500650105   -1.0194078415   -4.5189411393
H        5.3403974088    0.4682283922   -4.3397451995
H        3.8628632969    0.1001178046   -3.3082965775
H        5.2361750102   -2.5346869746    0.2210911289
H        6.8068168452   -2.0540224626   -0.3293724452
H        5.9179544744   -3.1738827191   -1.3515165744
H        4.7770004494   -0.7281094357    1.3011520444
19   

C        4.8826158019    2.1399084534   -0.0512274639
C        4.7235410995    1.4586281331    1.1162437481
C        5.0646169944    0.0412093625   -0.5683748920
C        5.4870645023   -1.0393651131   -2.6408472350
C        4.5390665669   -0.2720484885   -3.5540932326
C        5.8069918685   -2.3134139605   -0.5408283397
N        5.0763329874    1.2421708616   -1.0864890611
N        4.8450737309    0.1122572682    0.8036064601
N        5.2177708303   -1.1844291132   -1.2487409941
O        6.5081482645   -1.4759734609   -3.1421967057
H        4.8574652376    3.2186609440   -0.1549138580
H        4.5329256334    1.9031322149    2.0861844470
H        4.4270276068   -0.8075425081   -4.4996904291
H        5.0568313731    0.6323537275   -3.8836846879
H        3.5949482116   -0.0156891718   -3.0670097940
H        5.3544775733   -2.4690996492    0.4423773454
H        6.8515856887   -2.0618779702   -0.3260456764
H        5.8346251510   -3.2142517087   -1.1626914127
H        4.7639001939   -0.6856417906    1.4225625815
19   

C        4.8480028244    2.1882856744   -0.0856493791
C        4.6953412991    1.5176012052    1.0882449497
C        5.1004929354    0.0890558059   -0.5739627735
C        5.4538992916   -1.0894995590   -2.6320257115
C        4.5441322590   -0.2464405545   -3.5193089879
C        5.8953613928   -2.2601424755   -0.5023491343
N        5.0831502069    1.2834402528   -1.1060590356
N        4.8646407748    0.1722512380    0.7946342063
N        5.3086192285   -1.1404011529   -1.2294830948
O        6.3332242986   -1.7188285557   -3.2004674808
H        4.7910774188    3.2643338875   -0.2035538303
H        4.4773951759    1.9682052938    2.0495566071
H        4.4096792472   -0.7230602813   -4.4932265923
H        5.0931170335    0.6644174276   -3.7716413001
H        3.6197200843    0.0465616277   -3.0154522005
H        5.5319739272   -2.3392216983    0.5257267544
H        6.9676613602   -2.0574632996   -0.4049852807
H        5.8373656274   -3.1930870363   -1.0727281360
H        4.8012781174   -0.6197077746    1.4231758725
19   

C        4.8563351341    2.0586390777   -0.1099615423
C        4.7308920625    1.4051630805    1.0761486014
C        5.1283740703   -0.0457872463   -0.5702605719
C        5.3302715215   -1.3329061938   -2.6057715207
C        4.4746232099   -0.4155048898   -3.4747166520
C        5.9139918886   -2.4063316540   -0.4670351373
N        5.0874284114    1.1402597453   -1.1190496001
N        4.9153386042    0.0580870809    0.8008129511
N        5.3461698136   -1.2820781450   -1.2054229724
O        6.0058386497   -2.1538158968   -3.2121138834
H        4.7835752702    3.1318428616   -0.2436557251
H        4.5202968182    1.8681644604    2.0331460962
H        4.2770650740   -0.8663411142   -4.4502745671
H        5.0725632238    0.4727580210   -3.6939300747
H        3.5900196608   -0.0532840759   -2.9452452823
H        5.7268386832   -2.3709436435    0.6093034860
H        7.0012445087   -2.3564407703   -0.5924711511
H        5.6654853506   -3.3633349102   -0.9375491716
H        4.8718674815   -0.7244035448    1.4426549543
19   

C        4.7971748474    2.0691089144   -0.0954468674
C        4.7337847248    1.4067472196    1.0900073040
C        5.1710860945   -0.0173801888   -0.5715104615
C        5.2698651203   -1.3650628407   -2.5941668755
C        4.4560129460   -0.4026396912   -3.4555416299
C        6.0236902168   -2.3561424620   -0.4792553141
N        5.0537361838    1.1668705739   -1.1127416654
N        4.9855882269    0.0728210712    0.8047926598
N        5.4409230143   -1.2360574258   -1.2158979676
O        5.7508643486   -2.3138429164   -3.2026253482
H        4.6643024004    3.1372655397   -0.2227473552
H        4.5185394294    1.8551035791    2.0528497943
H        4.2242629350   -0.8319847239   -4.4333761782
H        5.0679244982    0.4862452408   -3.6281899130
H        3.5877951202   -0.0193247942   -2.9141631456
H        5.9688600353   -2.2619377403    0.6082562980
H        7.0831691811   -2.4063184465   -0.7531116707
H        5.6622569607   -3.3159916746   -0.8627958038
H        4.9975751947   -0.7125908037    1.4442418964
19   

C        4.7696214794    2.0749639166   -0.0593550909
C        4.8616442557    1.4151908115    1.1249786620
C        5.3129645443    0.0337188568   -0.5690199481
C        5.3049960859   -1.3859416833   -2.5538607175
C        4.4898025491   -0.4228929677   -3.4137715044
C        6.3147087784   -2.2268728083   -0.4742833031
N        5.0369538069    1.1978068472   -1.0953065035
N        5.2257429587    0.1123316656    0.8179154191
N        5.6548370591   -1.1583545674   -1.2258278946
O        5.6045619103   -2.4281778991   -3.1261852755
H        4.5225995401    3.1241693458   -0.1721904183
H        4.6729359256    1.8452094121    2.1014824134
H        4.2250617216   -0.8588615535   -4.3803256314
H        5.0761795302    0.4865486267   -3.5660668190
H        3.6235053894   -0.0556811665   -2.8585529344
H        5.6742811444   -2.5320103173    0.3583728288
H        7.1712116485   -1.8142460540    0.0688787512
H        6.5919324884   -3.0989380579   -1.0754772796
H        5.3644640895   -0.6644264354    1.4525229271
