19   

C        2.1670138953   -0.4885440436   -0.0248285967
C        0.8667349021   -0.3835895091    0.4526157036
C        3.1485069450   -1.0993532935    0.7575353724
C        0.5593291790   -0.8885952502    1.7143610373
C        3.8455315501   -3.0606826975    3.9269566750
C        6.1165536479   -2.6573384193    3.1789166984
C        2.8595678527   -1.6261686417    2.0394869149
C        1.5354982797   -1.5023338787    2.5111865296
C        3.9436541638   -2.2531196598    2.8176715337
N        5.2559536655   -2.0428233336    2.4045458545
O        1.1466512498   -1.9387542186    3.7453339224
S        5.4111199651   -3.5708167583    4.4988682659
H        2.4214723426   -0.0965141080   -1.0030170082
H        0.1007716233    0.0909007660   -0.1511290236
H        4.1511206031   -1.1633223288    0.3488862269
H       -0.4569955709   -0.7933605951    2.0757300885
H        2.9212886063   -3.3667598658    4.3938461098
H        7.1866666420   -2.6074570102    3.0149795303
H        0.2151390601   -1.7095233027    3.9017903212
19   

C        2.1435894653   -0.5681212943   -0.0585195428
C        0.8650163511   -0.3924069983    0.4603208126
C        3.1269637666   -1.1929296989    0.7111485557
C        0.5807646709   -0.8386833104    1.7508690435
C        3.8234142574   -3.2201134588    3.7912738299
C        6.1011834691   -2.5353368711    3.3018539083
C        2.8553042259   -1.6653321477    2.0135402712
C        1.5598704631   -1.4652098420    2.5330394600
C        3.9427949656   -2.2888855373    2.7904260251
N        5.2532108141   -1.9092502586    2.5217701331
O        1.2180332389   -1.8460225531    3.8001116251
S        5.3794295866   -3.6590910762    4.4425756746
H        2.3792523051   -0.2179997633   -1.0570890100
H        0.0985683622    0.0939184968   -0.1332962872
H        4.1182582198   -1.3137726175    0.2872650812
H       -0.4160764532   -0.6866833219    2.1455137008
H        2.8837125385   -3.6343866956    4.1292012796
H        7.1713030048   -2.3731050149    3.2465899875
H        0.3158419692   -1.5491285516    4.0063671989
19   

C        2.1118001283   -0.6268983890   -0.0850653385
C        0.8597476928   -0.3830840745    0.4738534374
C        3.0969976391   -1.2689328643    0.6687560762
C        0.6036278527   -0.7768478784    1.7885321986
C        3.8160942497   -3.3498627593    3.6511813675
C        6.0543154350   -2.4236821707    3.4473922485
C        2.8463203669   -1.6940259874    1.9875803346
C        1.5852664876   -1.4203775326    2.5526846005
C        3.9396097116   -2.3151981969    2.7622582456
N        5.2205586247   -1.7880727791    2.6590529346
O        1.2896812077   -1.7620546034    3.8427286483
S        5.3477308804   -3.7278032501    4.3922689155
H        2.3254003017   -0.3135718388   -1.1006679035
H        0.0927615126    0.1171953944   -0.1073345156
H        4.0740976725   -1.4396492680    0.2291146933
H       -0.3703787203   -0.5714811317    2.2147309795
H        2.8812776745   -3.8506039819    3.8648057362
H        7.1044705223   -2.1640669251    3.5130913916
H        0.4178168177   -1.4116913843    4.0907496528
19   

C        2.0836875373   -0.6758133322   -0.1004897702
C        0.8617526423   -0.3717005608    0.4973468443
C        3.0776864465   -1.3228778713    0.6380596889
C        0.6440826898   -0.7094047779    1.8353343921
C        3.8548276682   -3.4622125603    3.4858467871
C        6.0046385371   -2.3321310730    3.6158270508
C        2.8593909276   -1.6939537230    1.9760559761
C        1.6346546934   -1.3581410415    2.5827173849
C        3.9601996289   -2.3158469467    2.7465701108
N        5.1844305678   -1.6688644254    2.8359197104
O        1.3888268774   -1.6580728985    3.8933394491
S        5.3482178281   -3.8072688562    4.3157574871
H        2.2667840794   -0.4040885319   -1.1338797664
H        0.0885898827    0.1324253597   -0.0722132845
H        4.0350371836   -1.5387086564    0.1757108235
H       -0.3052748982   -0.4580951198    2.2914601731
H        2.9497064353   -4.0509714164    3.5522861992
H        7.0149301443   -1.9953968494    3.8169671184
H        0.5452615714   -1.2667289741    4.1749841989
19   

C        2.0516130898   -0.7300295993   -0.1249524932
C        0.8617467923   -0.3592435190    0.5012923341
C        3.0523844945   -1.3743154989    0.6074281998
C        0.6811954361   -0.6294893442    1.8605876974
C        3.9141943403   -3.5735402470    3.2568970170
C        5.9224145556   -2.3051720121    3.7862418118
C        2.8696401018   -1.6710326223    1.9676633929
C        1.6780546159   -1.2756505601    2.6013596980
C        3.9665434874   -2.3096999314    2.7380638445
N        5.1076812493   -1.5869788673    3.0506410465
O        1.4734549520   -1.5233373156    3.9296514585
S        5.3606410909   -3.9307736267    4.1616878307
H        2.2035505857   -0.5129601800   -1.1761730784
H        0.0837759500    0.1424162392   -0.0638861758
H        3.9844585405   -1.6451858886    0.1233715753
H       -0.2438740830   -0.3304582111    2.3373474199
H        3.0718646031   -4.2401914815    3.1301678152
H        6.8743129469   -1.9254037958    4.1386603458
H        0.6554403184   -1.0941324065    4.2301098057
19   

C        1.9971517432   -0.8307553863   -0.1428235712
C        0.8440691011   -0.3838262143    0.5031794715
C        3.0098614949   -1.4538189299    0.5916967209
C        0.7088129741   -0.5621786402    1.8830687774
C        4.0408609584   -3.6378935349    2.9839239168
C        5.8406342495   -2.3042894885    3.9369302668
C        2.8781835428   -1.6409143705    1.9766401346
C        1.7169939043   -1.1868164688    2.6268477622
C        3.9672859016   -2.2933378156    2.7492391525
N        4.9962522580   -1.5378159956    3.2890694381
O        1.5526936420   -1.3594047595    3.9724074739
S        5.4534104167   -4.0218747406    3.9305652532
H        2.1097760498   -0.6910996167   -1.2119869619
H        0.0571865435    0.1014908229   -0.0639332879
H        3.9100827871   -1.7908803326    0.0895309231
H       -0.1910605142   -0.2119716475    2.3730212877
H        3.3076143835   -4.3514361633    2.6329624352
H        6.7172321696   -1.9097085633    4.4373334309
H        0.7585972163   -0.8914307165    4.2782459569
19   

C        1.9280914467   -0.9459588787   -0.1465788613
C        0.8174020061   -0.4163481878    0.5105534243
C        2.9494908555   -1.5520725363    0.5898657713
C        0.7301064899   -0.5009201460    1.9029728162
C        4.2057628761   -3.6350095906    2.7251995281
C        5.7567998539   -2.3159965316    4.0592389583
C        2.8753465032   -1.6291669692    1.9902385441
C        1.7468023918   -1.1080356186    2.6498544149
C        3.9591757243   -2.2904790903    2.7581762694
N        4.8570645726   -1.5413047855    3.5026292095
O        1.6183000669   -1.2002373098    4.0071404919
S        5.5971818450   -4.0315705943    3.6976781810
H        2.0001767603   -0.8848340395   -1.2265788625
H        0.0239026050    0.0564047588   -0.0579591050
H        3.8136573627   -1.9577246749    0.0753238178
H       -0.1411960864   -0.0943485083    2.4009667559
H        3.6068914950   -4.3446425262    2.1704344690
H        6.5478320056   -1.9275397328    4.6900121634
H        0.8526088206   -0.6861044769    4.3103010458
19   

C        1.8594133809   -1.0479811784   -0.1418183653
C        0.7927363702   -0.4435780418    0.5219155847
C        2.8860322262   -1.6479825138    0.5918235474
C        0.7532851959   -0.4501894155    1.9184284743
C        4.3649516345   -3.5874937860    2.5343020797
C        5.6663105618   -2.3423834783    4.1705265260
C        2.8662811032   -1.6427521757    1.9977907942
C        1.7750061765   -1.0507923570    2.6642081135
C        3.9567111300   -2.2996638409    2.7525972833
N        4.7180897646   -1.5891791959    3.6682852435
O        1.6769062941   -1.0713306056    4.0270003812
S        5.7297085753   -3.9855020964    3.5432736147
H        1.8935228093   -1.0493428113   -1.2254235191
H       -0.0049183027    0.0250547304   -0.0441973573
H        3.7150036483   -2.1094137953    0.0666322522
H       -0.0872027741    0.0105826997    2.4221468296
H        3.8928648092   -4.2602173164    1.8311311919
H        6.3673498023   -1.9769938784    4.9118208187
H        0.9403435248   -0.5129037304    4.3227847898
19   

C        1.7952618753   -1.1384009448   -0.1359379041
C        0.7723137086   -0.4642221115    0.5264190745
C        2.8224358359   -1.7376511002    0.5966861008
C        0.7776748031   -0.4008192724    1.9209755297
C        4.4971967191   -3.5238002722    2.3966479977
C        5.5694678110   -2.4038003386    4.2698773141
C        2.8506293493   -1.6674839402    2.0033414641
C        1.7998531746   -1.0001818740    2.6679779281
C        3.9562470365   -2.3126776686    2.7405260045
N        4.5880996783   -1.6747531811    3.7975188343
O        1.7244630192   -0.9485147576    4.0313556109
S        5.8277034723   -3.9355792495    3.4450202303
H        1.7962135818   -1.1933382274   -1.2187057068
H       -0.0261387101    0.0044731882   -0.0385307128
H        3.6173548185   -2.2459841154    0.0627257543
H       -0.0309836025    0.1139328120    2.4245322380
H        4.1347553555   -4.1427730698    1.5873314384
H        6.1830392863   -2.0827765662    5.1035053433
H        1.0096013115   -0.3551245048    4.3107109150
19   

C        1.7318360584   -1.2157224498   -0.1149188449
C        0.7459213824   -0.4881650088    0.5430236426
C        2.7646006191   -1.8071157087    0.6152338475
C        0.7961843518   -0.3622876922    1.9309333777
C        4.6334778448   -3.4271514570    2.2959483541
C        5.4842036549   -2.4757239455    4.3629475005
C        2.8386540050   -1.6842870509    2.0199404236
C        1.8242885417   -0.9527560100    2.6779826754
C        3.9683649781   -2.3099472105    2.7363910260
N        4.4733464975   -1.7747401751    3.9121727520
O        1.7721994762   -0.8251306351    4.0373558805
S        5.9294275673   -3.8610475039    3.3781489976
H        1.7013050430   -1.3170866360   -1.1939220164
H       -0.0573515934   -0.0248878627   -0.0195779298
H        3.5285635727   -2.3479200099    0.0694356832
H        0.0157688688    0.1968024281    2.4317890639
H        4.3773572267   -3.9809124452    1.4036318359
H        6.0107005619   -2.2175245476    5.2743081092
H        1.0635989671   -0.2157863185    4.2964903768
19   

C        1.6719292785   -1.2958752305   -0.0962387678
C        0.7195520287   -0.5206328221    0.5520668190
C        2.7137334845   -1.8726755927    0.6319012832
C        0.8156650291   -0.3300252552    1.9283899411
C        4.7709538035   -3.3078999023    2.2146150269
C        5.3904270366   -2.5887302818    4.4473133355
C        2.8346265341   -1.6949446439    2.0310778532
C        1.8538211163   -0.9038042587    2.6755777406
C        3.9803939545   -2.3091725007    2.7348592227
N        4.3552206230   -1.9157162088    4.0113073160
O        1.8352308609   -0.6840063616    4.0238384079
S        6.0240578092   -3.7833717890    3.3294106260
H        1.6087511807   -1.4466806282   -1.1680473637
H       -0.0913382244   -0.0684976485   -0.0086945441
H        3.4417925171   -2.4480244316    0.0749826936
H        0.0627243012    0.2715892541    2.4220084707
H        4.6360035368   -3.7687445255    1.2472377370
H        5.8247164448   -2.4196871084    5.4257001289
H        1.1170303030   -0.0779152745    4.2624192955
19   

C        1.6188220810   -1.3746886077   -0.0698341346
C        0.6996165783   -0.5525250347    0.5659364087
C        2.6724576585   -1.9334012325    0.6549729990
C        0.8426653090   -0.2952912134    1.9262832414
C        4.9221541405   -3.1372738520    2.1610290443
C        5.2636926314   -2.7553281461    4.5308187404
C        2.8437008402   -1.6895366984    2.0406820030
C        1.8946340882   -0.8476209916    2.6708981702
C        3.9840958599   -2.3153326925    2.7462179541
N        4.2054504137   -2.1154235975    4.1015566806
O        1.9316184784   -0.5238151970    3.9975693897
S        6.1143215217   -3.6826264160    3.3102951144
H        1.5171510028   -1.5819731363   -1.1291883583
H       -0.1214056656   -0.1153337939    0.0080605716
H        3.3539696843   -2.5646601460    0.1016631180
H        0.1179702202    0.3481144082    2.4093863007
H        4.9448567445   -3.4274080983    1.1217842142
H        5.5898050075   -2.7150220478    5.5635054403
H        1.1942562850    0.0616309621    4.2286366046
19   

C        1.5756672241   -1.4584737480   -0.0467074343
C        0.6884167700   -0.5879362107    0.5723790076
C        2.6400393198   -1.9991256726    0.6765193730
C        0.8749937813   -0.2620321899    1.9135721830
C        5.0438384854   -2.9391132229    2.1382303102
C        5.1401741572   -2.9387324591    4.5624602034
C        2.8524463632   -1.6844867359    2.0402538617
C        1.9398169773   -0.7938169836    2.6542735456
C        3.9818756343   -2.3175588396    2.7538159092
N        4.0602336826   -2.3312744354    4.1388685593
O        2.0525040712   -0.3816213399    3.9519113448
S        6.1826484942   -3.5674976488    3.2989957807
H        1.4366697378   -1.7221893590   -1.0891281441
H       -0.1415146207   -0.1659540118    0.0159907722
H        3.2882181222   -2.6899384206    0.1531632599
H        0.1792987190    0.4228688620    2.3820148571
H        5.1845064288   -3.0197516882    1.0704641810
H        5.3725072010   -3.0464439890    5.6154769598
H        1.3048800675    0.1846640151    4.1977917284
19   

C        2.0376321330   -0.4603474349    0.0386736399
C        0.7799034698   -0.3354763459    0.6190396537
C        3.0744201650   -1.0692526811    0.7484391037
C        0.5689173693   -0.8157561141    1.9111405213
C        5.3266800188   -1.9331032816    2.5160734078
C        4.9375979530   -3.6935770151    4.1441829957
C        2.8792801933   -1.5699764579    2.0541494782
C        1.6001353876   -1.4262038984    2.6375555159
C        4.0058221477   -2.2274820184    2.7466454074
N        3.8026419027   -3.2410719359    3.6713969207
O        1.3246003460   -1.8231260097    3.9156185581
S        6.3768818259   -2.9280448833    3.4887359896
H        2.2097940275   -0.0912376853   -0.9661000795
H       -0.0295417189    0.1347215078    0.0712207726
H        4.0355505534   -1.1704930901    0.2585532232
H       -0.4118277506   -0.7014014702    2.3556054318
H        5.6744814045   -1.1697872611    1.8342661554
H        4.9857688720   -4.4856113722    4.8822918751
H        0.3782855748   -1.7294033146    4.1060630310
19   

C        2.0238903708   -0.5515143479   -0.0100153103
C        0.7818247370   -0.3666911359    0.5922424995
C        3.0620954500   -1.1521377108    0.7057604557
C        0.5875274385   -0.7762721215    1.9125648473
C        5.3007598706   -1.8001281931    2.6558330467
C        4.9480857044   -3.7768969709    4.0274316812
C        2.8761670080   -1.5861203729    2.0330091111
C        1.6211216055   -1.3768272286    2.6427084933
C        3.9996448211   -2.2186634689    2.7538679696
N        3.8134622705   -3.3577751392    3.5227665322
O        1.3867140795   -1.7104309354    3.9468986674
S        6.3599558323   -2.8252270395    3.5865141963
H        2.1824356959   -0.2338856594   -1.0344081369
H       -0.0279014760    0.0972570462    0.0395532342
H        4.0176129983   -1.3000725747    0.2153424243
H       -0.3784432406   -0.6138978107    2.3740916426
H        5.6203190726   -0.9399060606    2.0836560282
H        5.0133229273   -4.6514703424    4.6640840466
H        0.4461980539   -1.6070330050    4.1611736099
19   

C        1.9988874825   -0.6496058457   -0.0468856815
C        0.7808587117   -0.3908052636    0.5800433388
C        3.0375098129   -1.2490977826    0.6700803877
C        0.6102775222   -0.7250679385    1.9257786242
C        5.2499010999   -1.6931722538    2.8212531786
C        4.9785706964   -3.8553793789    3.9039713655
C        2.8697709514   -1.6077844189    2.0193097981
C        1.6449220078   -1.3236910473    2.6551628275
C        3.9906741597   -2.2258010665    2.7621589508
N        3.8499678210   -3.4689838448    3.3602466551
O        1.4504784881   -1.5965977371    3.9799093210
S        6.3261690606   -2.7408789052    3.7061001680
H        2.1384549358   -0.3889143028   -1.0899239847
H       -0.0283961169    0.0724928243    0.0261339308
H        3.9788802391   -1.4527170798    0.1717834219
H       -0.3357351985   -0.5067024166    2.4051925801
H        5.5268199155   -0.7458499245    2.3787950457
H        5.0777193379   -4.7979993673    4.4294428597
H        0.5204454476   -1.4606223190    4.2215776760
19   

C        1.9667023851   -0.7588008683   -0.0876249446
C        0.7778534928   -0.4198792990    0.5586526990
C        3.0063911568   -1.3526344759    0.6330735794
C        0.6362206648   -0.6711129055    1.9262688144
C        5.1634985972   -1.5977485470    3.0336902704
C        5.0291013322   -3.9134775792    3.7715655773
C        2.8668449360   -1.6203856579    2.0047082277
C        1.6725214247   -1.2635770587    2.6578070826
C        3.9855171922   -2.2360653805    2.7606188658
N        3.9215553936   -3.5605277351    3.1647263900
O        1.5137312207   -1.4699797367    3.9992279857
S        6.2594045012   -2.6586963759    3.8777304455
H        2.0827815926   -0.5645350329   -1.1478694390
H       -0.0316681266    0.0393609682    0.0017705951
H        3.9268561845   -1.6193497315    0.1254344550
H       -0.2878091301   -0.3952499702    2.4187484770
H        5.3708310436   -0.5717193235    2.7611718270
H        5.1803883673   -4.9091748512    4.1718222496
H        0.5978149712   -1.2865956809    4.2637813872
19   

C        1.9275084234   -0.8780789962   -0.1229700090
C        0.7746317867   -0.4545057912    0.5389342836
C        2.9746925098   -1.4541171441    0.6015329492
C        0.6739883159   -0.6093037576    1.9246060304
C        5.0344581366   -1.5357150871    3.3047936692
C        5.0908799796   -3.9460575244    3.6409222103
C        2.8824623781   -1.6076483833    1.9937801459
C        1.7184311544   -1.1834384250    2.6589806755
C        3.9972624715   -2.2333371132    2.7517472240
N        4.0352778011   -3.6058348908    2.9408208167
O        1.5982853866   -1.3109331545    4.0141990810
S        6.1371767562   -2.6129728910    4.1186711745
H        2.0094436320   -0.7649065942   -1.1980403532
H       -0.0403218873   -0.0085989465   -0.0208439473
H        3.8655551800   -1.7925698144    0.0838533852
H       -0.2252753469   -0.2758636756    2.4272133853
H        5.1359030257   -0.4604153783    3.2464350933
H        5.3068802755   -4.9750964785    3.9034938005
H        0.6982166085   -1.0799979416    4.2964602702
19   

C        1.8838574001   -0.9847764781   -0.1380539059
C        0.7670285031   -0.4820955994    0.5294004134
C        2.9396735769   -1.5386801934    0.5909530893
C        0.7089841577   -0.5418612917    1.9245470153
C        4.8738736525   -1.5518507478    3.5671618281
C        5.1600379009   -3.9671400516    3.4865360358
C        2.9000273873   -1.5809635377    1.9938930511
C        1.7627685086   -1.0938961785    2.6626528570
C        4.0094630124   -2.2203129983    2.7454646706
N        4.1693332474   -3.5971346177    2.7104604217
O        1.6754595381   -1.1411082713    4.0256388579
S        5.9829630919   -2.6592997223    4.3300222721
H        1.9305900662   -0.9526656163   -1.2206686380
H       -0.0547769635   -0.0530976908   -0.0335575068
H        3.7990834728   -1.9460484277    0.0695026606
H       -0.1663561142   -0.1548895591    2.4310102013
H        4.8453058134   -0.4823083003    3.7261202711
H        5.4519673745   -5.0045246806    3.6011860991
H        0.7899766836   -0.8668186413    4.3160288882
19   

C        1.8660425965   -1.0522206195   -0.1394390637
C        0.7800240002   -0.4777556092    0.5190309953
C        2.9191043503   -1.5969993442    0.5997833613
C        0.7495939111   -0.4593694605    1.9155953749
C        4.7292119097   -1.6237011262    3.7642629498
C        5.2583979606   -3.9562318807    3.3227323170
C        2.9133908422   -1.5578393019    2.0047734382
C        1.8007401122   -1.0028698868    2.6641801094
C        4.0132735737   -2.2063006718    2.7544126991
N        4.3103826039   -3.5406842167    2.5168128188
O        1.7265254728   -0.9791866631    4.0287516220
S        5.8688045923   -2.7503995455    4.4497638525
H        1.8910452986   -1.0842735838   -1.2227680169
H       -0.0402216257   -0.0557934839   -0.0514661592
H        3.7524274808   -2.0623030454    0.0840946142
H       -0.1046031831   -0.0200067525    2.4153891064
H        4.5785117914   -0.6046648643    4.0946404667
H        5.6384610897   -4.9708684484    3.2982120256
H        0.8542006238   -0.6585927889    4.3122047075
19   

C        1.8461850890   -1.1071191541   -0.1407371336
C        0.7901489529   -0.4632111831    0.4992911642
C        2.8880059189   -1.6523396769    0.6131954632
C        0.7793344603   -0.3757848081    1.8925824949
C        4.6017054640   -1.7064199770    3.8999353452
C        5.3778211221   -3.8938484938    3.1775509697
C        2.9038884267   -1.5510405945    2.0175953122
C        1.8188613394   -0.9201350578    2.6572641841
C        3.9978860273   -2.1954652065    2.7720167351
N        4.4428247271   -3.4490842495    2.3721973756
O        1.7458590335   -0.8283547615    4.0190912187
S        5.8003894523   -2.8185750711    4.5034537991
H        1.8578694027   -1.1920178464   -1.2214326801
H       -0.0218672319   -0.0405100233   -0.0823274362
H        3.6977667099   -2.1658314546    0.1054881153
H       -0.0530842918    0.1178366616    2.3783052447
H        4.3495437239   -0.7572025218    4.3534327731
H        5.8564222212   -4.8560176640    3.0371439114
H        0.8896283937   -0.4528260007    4.2841639089
19   

C        1.8195905814   -1.1736525778   -0.1341849990
C        0.8020313904   -0.4579309531    0.4880181936
C        2.8455466667   -1.7322167241    0.6308111231
C        0.8151882110   -0.3112297596    1.8750237711
C        4.4936332872   -1.8275411414    4.0007163197
C        5.5079870407   -3.8231185497    3.0597669289
C        2.8852784093   -1.5821581813    2.0340514310
C        1.8383270413   -0.8688231825    2.6530040658
C        3.9770513763   -2.2214147237    2.7919360845
N        4.5700323002   -3.3641459487    2.2665726251
O        1.7673126401   -0.7126270423    4.0086967999
S        5.7637921418   -2.8972822139    4.5302687436
H        1.8159825871   -1.3018765796   -1.2106647860
H        0.0022126048   -0.0238239473   -0.1020474626
H        3.6252047596   -2.2908308174    0.1238311892
H        0.0116004457    0.2402394842    2.3469018535
H        4.1598266531   -0.9597128812    4.5523529553
H        6.0859215462   -4.7093886090    2.8251483197
H        0.9362079508   -0.2708948072    4.2511305019
19   

C        1.7713221549   -1.2485017019   -0.1249636286
C        0.7974212997   -0.4626236873    0.4780338874
C        2.7841108415   -1.8174706278    0.6490175684
C        0.8428451003   -0.2552707269    1.8551567199
C        4.3732461398   -1.9765808002    4.0880616702
C        5.6230589265   -3.7283425732    2.9704539821
C        2.8557750506   -1.6159827465    2.0485475311
C        1.8528328412   -0.8222540825    2.6444380713
C        3.9477419450   -2.2509626867    2.8090124676
N        4.6850494027   -3.2543645711    2.1872594916
O        1.7967092396   -0.5883422315    3.9886549928
S        5.7117247743   -2.9894701485    4.5580766431
H        1.7461855917   -1.4216669650   -1.1948565727
H        0.0079499967   -0.0190482314   -0.1188952943
H        3.5266401964   -2.4231595110    0.1409708326
H        0.0729493965    0.3540495709    2.3118438603
H        3.9540767438   -1.2198601582    4.7342533256
H        6.2973121836   -4.5178712010    2.6597575878
H        1.0029051468   -0.0704539545    4.2040776239
19   

C        1.6904796125   -1.3422052473   -0.1042462349
C        0.7646589662   -0.4925130678    0.4856443986
C        2.7059806823   -1.9085723447    0.6676018664
C        0.8634544515   -0.2161264913    1.8470696654
C        4.2373419838   -2.1651728177    4.1486918178
C        5.7281400190   -3.6102694574    2.9005255247
C        2.8292847410   -1.6439767760    2.0548688362
C        1.8779748236   -0.7775463467    2.6351328430
C        3.9262528502   -2.2756264943    2.8111664720
N        4.8000085815   -3.1118295343    2.1214577181
O        1.8832738105   -0.4405957940    3.9576894266
S        5.6381270341   -3.1102761302    4.5766708614
H        1.6265643508   -1.5668363083   -1.1629044072
H       -0.0264851209   -0.0497239826   -0.1096549337
H        3.4055394938   -2.5657764715    0.1629721478
H        0.1336705488    0.4485460379    2.2922884696
H        3.7008354072   -1.5738622524    4.8741250958
H        6.4958746008   -4.2827151296    2.5359881387
H        1.1472308718    0.1643649524    4.1501101681
