16   

C        0.5835530152    0.8867059983    1.7731429366
C        0.3344248069    0.9003438355    3.1258243699
C       -0.2610893794    0.1632357570    0.9623554567
C       -4.2782735880   -1.9971502227    4.4797689171
C       -4.3309924883   -2.6059300385    3.2689068491
C       -1.4934568340   -0.4679937987    2.7986909337
C       -2.6556103790   -1.2100371894    3.3143732217
N       -0.6923707138    0.2317340800    3.6338208852
N       -1.2902884055   -0.5056209028    1.4705701510
N       -3.2196027328   -1.1199490757    4.4892672797
O       -3.3168739143   -2.1251998256    2.5131283975
H        1.4201589653    1.4312800190    1.3593067907
H        0.9823969448    1.4630426654    3.7882225343
H       -0.0863612865    0.1381449178   -0.1071897848
H       -4.9602491818   -2.1724526015    5.3035666461
H       -5.0579889511   -3.3470982735    2.9599878917
16   

C        0.5779208802    0.8955902784    1.7741235930
C        0.3873381368    0.8314878041    3.1350282308
C       -0.3155477225    0.2382499172    0.9590643042
C       -4.3332487163   -1.9259441664    4.4425685135
C       -4.2549065185   -2.6873757216    3.3224353366
C       -1.4777479449   -0.4832503314    2.8063988359
C       -2.6427222414   -1.2214117697    3.3261236023
N       -0.6297657658    0.1509907773    3.6470008459
N       -1.3356500983   -0.4417875513    1.4708379040
N       -3.3131256816   -1.0040693353    4.4248001171
O       -3.1949212413   -2.2602707980    2.5977582430
H        1.4065856643    1.4499023432    1.3572467851
H        1.0740292885    1.3420804048    3.8006267815
H       -0.1878164720    0.2761326920   -0.1167325275
H       -5.0801116687   -2.0258845816    5.2214648788
H       -4.9244180293   -3.4954146036    3.0538841732
16   

C        0.5647723995    0.8994386310    1.7805777241
C        0.4333204668    0.7555663500    3.1426660621
C       -0.3807411909    0.3146708311    0.9684843718
C       -4.3980491472   -1.8609459046    4.3988950902
C       -4.1905823154   -2.7575121021    3.4013766863
C       -1.4752862876   -0.4932138506    2.8191821012
C       -2.6448301174   -1.2267187641    3.3449546727
N       -0.5769306886    0.0677142815    3.6588296883
N       -1.3944189507   -0.3722256736    1.4839204559
N       -3.4176458492   -0.8981300261    4.3419975164
O       -3.0873180549   -2.3761380861    2.7165411033
H        1.3877708215    1.4598284926    1.3605997147
H        1.1615841738    1.2087345494    3.8056438014
H       -0.3000938545    0.4168529736   -0.1076892000
H       -5.2073395794   -1.8956491523    5.1188438817
H       -4.8021026352   -3.6259505148    3.1888719470
16   

C        0.5594685395    0.9070925302    1.7764765067
C        0.4816148020    0.6759653012    3.1309730743
C       -0.4402773678    0.4096315526    0.9706461804
C       -4.4684553064   -1.7987561262    4.3146765153
C       -4.1283375989   -2.8073900454    3.4721093447
C       -1.4813653195   -0.4822925105    2.8107191904
C       -2.6595605159   -1.2108311084    3.3375966994
N       -0.5296213490   -0.0116123950    3.6461534529
N       -1.4549736009   -0.2768829486    1.4846615471
N       -3.5330299148   -0.7959078995    4.2082981269
O       -2.9854635376   -2.4569224543    2.8372812776
H        1.3830994184    1.4673867318    1.3575977648
H        1.2535607460    1.0592984211    3.7885623252
H       -0.4019101264    0.5813963864   -0.0989928074
H       -5.3382991604   -1.7842276440    4.9609358443
H       -4.6767324180   -3.7307520889    3.3307701648
16   

C        0.5685585621    0.9024960310    1.7832549498
C        0.5310360393    0.5741578778    3.1194793154
C       -0.4846026046    0.5138838684    0.9852718413
C       -4.5417927062   -1.7494448609    4.2169435852
C       -4.0634043544   -2.8438132731    3.5711484243
C       -1.4997784989   -0.4566916257    2.7973529361
C       -2.6907725131   -1.1803801207    3.3168223428
N       -0.4935801841   -0.1009195702    3.6252179486
N       -1.5121980661   -0.1604925895    1.4896705408
N       -3.6616811886   -0.7073330203    4.0382544482
O       -2.8887159964   -2.5072608567    2.9889040821
H        1.4028538463    1.4527379478    1.3722161987
H        1.3464511069    0.8692042752    3.7701059236
H       -0.4776293092    0.7619189031   -0.0699721292
H       -5.4679751111   -1.7039659183    4.7778502069
H       -4.5391824050   -3.8159760823    3.5280299330
16   

C        0.5729516480    0.8983403250    1.7921319766
C        0.5548584419    0.4512957430    3.0937148179
C       -0.5247832930    0.6455571571    0.9998023982
C       -4.6327492669   -1.7127985286    4.0829996838
C       -4.0183437212   -2.8520994041    3.6729577092
C       -1.5489509433   -0.4156586591    2.7548189642
C       -2.7533230178   -1.1393395868    3.2498830875
N       -0.4948982306   -0.2045092996    3.5727950382
N       -1.5764881397   -0.0104606281    1.4779384327
N       -3.8145575981   -0.6419060840    3.8064434467
O       -2.8208266680   -2.5140991753    3.1401743741
H        1.4273667890    1.4331914647    1.4026796963
H        1.4067677298    0.6348613117    3.7385585891
H       -0.5328126484    0.9856002419   -0.0294764392
H       -5.6083506909   -1.6570309340    4.5516090338
H       -4.4165950466   -3.8558933920    3.7573834783
16   

C        0.5783778044    0.9009228883    1.7988119604
C        0.5800994868    0.3316503159    3.0516665801
C       -0.5534027176    0.7716530213    1.0251033340
C       -4.6897698657   -1.7238211227    3.9343196831
C       -3.9617015740   -2.8581855665    3.7716346409
C       -1.5753462498   -0.4000753966    2.7110917457
C       -2.7829038375   -1.1348424342    3.1739509294
N       -0.4841106649   -0.3200192911    3.5038144640
N       -1.6187545650    0.1188600123    1.4763408526
N       -3.9230281567   -0.6454708796    3.5578152902
O       -2.7442766465   -2.5101296852    3.2932884512
H        1.4442946978    1.4328663395    1.4314138855
H        1.4598726710    0.4137267188    3.6797859617
H       -0.5769860273    1.2066807538    0.0324813254
H       -5.7073153115   -1.6761582654    4.3042232143
H       -4.2958999852   -3.8655571143    3.9880637292
16   

C        0.5786343825    0.9159483073    1.8043341954
C        0.6126025563    0.2448818178    3.0051722902
C       -0.5852094589    0.8795683834    1.0693350279
C       -4.7183795547   -1.7400899888    3.8168770391
C       -3.9175659687   -2.8336482300    3.8925627951
C       -1.5766016481   -0.3981200293    2.6974939077
C       -2.7800939182   -1.1407983584    3.1415150940
N       -0.4517832399   -0.4139245322    3.4464728968
N       -1.6504791918    0.2192979022    1.5091575262
N       -3.9783566284   -0.6785839134    3.3504301465
O       -2.6802937990   -2.4777332326    3.4748037716
H        1.4446615646    1.4540425675    1.4462781914
H        1.5183547292    0.2515868975    3.6008564586
H       -0.6344177108    1.3947434761    0.1168268670
H       -5.7677966380   -1.7080626171    4.0855580548
H       -4.2158461124   -3.8187360699    4.2301282581
16   

C        0.5721952692    0.9272287904    1.8048548327
C        0.6423172625    0.1711931985    2.9524110905
C       -0.6216457529    0.9643256694    1.1197600571
C       -4.7340818378   -1.7785981129    3.7100790232
C       -3.8925220643   -2.8015160655    4.0062977314
C       -1.5707774573   -0.4111713810    2.6943552372
C       -2.7686437239   -1.1575242146    3.1312680206
N       -0.4159727946   -0.4988836571    3.3914319542
N       -1.6808212062    0.2929535143    1.5568374322
N       -4.0049188901   -0.7459769222    3.1683711019
O       -2.6394767412   -2.4302733039    3.6541373315
H        1.4334222573    1.4744234941    1.4490215843
H        1.5720078088    0.1194596370    3.5076315999
H       -0.6999676290    1.5476023073    0.2094042938
H       -5.8047047938   -1.7748191379    3.8781129308
H       -4.1739691758   -3.7492068016    4.4489990069
16   

C        0.5623834631    0.9396924879    1.8048645014
C        0.6651114455    0.1107842182    2.8983310015
C       -0.6577889186    1.0409995715    1.1749204914
C       -4.7429299606   -1.8252828912    3.6139474273
C       -3.8859661752   -2.7515796821    4.1132379083
C       -1.5667023552   -0.4218526282    2.6951361807
C       -2.7608623401   -1.1667580728    3.1327682215
N       -0.3865865555   -0.5690892922    3.3381514987
N       -1.7105248848    0.3603973664    1.6127078023
N       -4.0153890222   -0.8292402137    3.0061071347
O       -2.6241829733   -2.3553350905    3.8255952048
H        1.4185252198    1.4943972373    1.4483930519
H        1.6155072968    0.0089939448    3.4098582861
H       -0.7626649546    1.6836935324    0.3082973312
H       -5.8235929531   -1.8629685779    3.6862126185
H       -4.1629719706   -3.6508912140    4.6497242813
16   

C        0.5524580501    0.9576470602    1.8121455156
C        0.6801924042    0.0637256819    2.8502864485
C       -0.6891516457    1.1199549747    1.2395825359
C       -4.7451377645   -1.8743466522    3.5345353716
C       -3.8935371509   -2.6793495743    4.2185530114
C       -1.5674453144   -0.4204457477    2.7012357553
C       -2.7603092496   -1.1609466298    3.1439190763
N       -0.3673422597   -0.6221826586    3.2906621778
N       -1.7378423245    0.4339711890    1.6783088960
N       -4.0140596502   -0.9205851970    2.8664543822
O       -2.6314751897   -2.2473442936    3.9898903266
H        1.4054893367    1.5165394084    1.4547621114
H        1.6472072172   -0.0850989281    3.3172011011
H       -0.8147181369    1.8163989491    0.4184332242
H       -5.8247740764   -1.9672005125    3.5192594539
H       -4.1743683722   -3.5209049369    4.8400248019
16   

C        0.5490481105    0.9715129793    1.8276902296
C        0.6933539320    0.0150050447    2.8061478901
C       -0.7084557668    1.1943942771    1.3131709665
C       -4.7365160419   -1.9344111977    3.4596920115
C       -3.9122961078   -2.5985522330    4.3085191212
C       -1.5672838730   -0.4194497466    2.7059281953
C       -2.7615353951   -1.1545346662    3.1522033422
N       -0.3528689491   -0.6752277975    3.2428788721
N       -1.7560094260    0.5048648835    1.7489051560
N       -3.9947168180   -1.0285273564    2.7389717164
O       -2.6571335922   -2.1235782621    4.1335106000
H        1.4012457105    1.5331042299    1.4725562970
H        1.6725742769   -0.1803404158    3.2283365526
H       -0.8478368965    1.9427733476    0.5414267606
H       -5.8045159625   -2.0925011776    3.3656120681
H       -4.2069767785   -3.3739431334    5.0051117138
16   

C        0.5479140201    0.9806541565    1.8428950716
C        0.7019444169   -0.0365443529    2.7565428771
C       -0.7207755810    1.2637266905    1.3889369841
C       -4.7180210680   -2.0062214433    3.3915216836
C       -3.9401946825   -2.5117075142    4.3817796175
C       -1.5694809895   -0.4189194107    2.7038512655
C       -2.7662633005   -1.1489628187    3.1532201611
N       -0.3452547664   -0.7293527730    3.1868106195
N       -1.7694755096    0.5722733125    1.8189647141
N       -3.9608223167   -1.1526407893    2.6243712614
O       -2.6995949312   -1.9866640203    4.2515490325
H        1.4010385462    1.5436250118    1.4921958358
H        1.6897287887   -0.2783046523    3.1321878658
H       -0.8682436444    2.0623463132    0.6709209023
H       -5.7641844242   -2.2390445155    3.2308818590
H       -4.2564022721   -3.2136964542    5.1437068924
16   

C        0.6387284992    0.8369685598    1.8289043734
C       -0.3408349536    1.4524153222    2.5739070258
C        0.4989011268   -0.5034792891    1.5467786078
C       -3.9498818413   -2.8844850615    3.8682212799
C       -4.6558450531   -1.7254786185    3.8643628755
C       -1.4726472766   -0.5480637769    2.7248364727
C       -2.6255460079   -1.3481765063    3.1755755822
N       -1.3906140351    0.7699795334    3.0143553901
N       -0.5514015026   -1.1873322576    1.9853474193
N       -2.6694849395   -2.6259683864    3.4385339312
O       -3.8382032630   -0.7365203156    3.4339318411
H        1.4941175522    1.3926849926    1.4722006237
H       -0.2577333444    2.5080743304    2.8061847135
H        1.2548649743   -1.0095863199    0.9573174001
H       -4.3321178863   -3.8541097659    4.1652042435
H       -5.6927194663   -1.6110421071    4.1560937172
16   

C        0.6291904153    0.8432513691    1.8202976658
C       -0.3059354945    1.4278013798    2.6432928619
C        0.4505685360   -0.4741945046    1.4618418483
C       -3.9277809559   -2.8648365055    3.9618422764
C       -4.6829287097   -1.7582476111    3.7437100827
C       -1.4661305941   -0.5597737231    2.7231230822
C       -2.6216733901   -1.3634341186    3.1721693703
N       -1.3491736832    0.7369871260    3.0862068155
N       -0.5936414797   -1.1661988809    1.9027220242
N       -2.6276872697   -2.5930315791    3.6050361616
O       -3.8768754134   -0.7902360302    3.2485181346
H        1.4795954793    1.4054398355    1.4618191669
H       -0.1927672098    2.4655739421    2.9356866801
H        1.1701862969   -0.9549663042    0.8090760669
H       -4.2897645967   -3.8065789384    4.3575339504
H       -5.7451508849   -1.6650689827    3.9342781019
16   

C        0.6220955779    0.8579813659    1.8183250887
C       -0.2565640792    1.4045662601    2.7253527068
C        0.3958440108   -0.4293650364    1.3851632424
C       -3.9083708653   -2.8208494376    4.0776053523
C       -4.6917290511   -1.8007422040    3.6432881891
C       -1.4537984945   -0.5619593934    2.7370103695
C       -2.6089975001   -1.3690837869    3.1965672664
N       -1.2909173319    0.7056831784    3.1763136177
N       -0.6398043041   -1.1291633807    1.8345128499
N       -2.5951895841   -2.5240685446    3.7956881570
O       -3.8899203542   -0.8638086792    3.0853460387
H        1.4653720182    1.4264357560    1.4529523869
H       -0.1057650642    2.4185557227    3.0779949431
H        1.0701369225   -0.8795039156    0.6655781573
H       -4.2603494716   -3.7193760010    4.5708117679
H       -5.7700380688   -1.7450886613    3.7297284368
16   

C        0.6093497674    0.8595986913    1.8087594846
C       -0.1966116885    1.3679641300    2.8015882235
C        0.3156177022   -0.3878234638    1.3048528065
C       -3.9107442025   -2.7632072542    4.1851138715
C       -4.7009432495   -1.8718595610    3.5336402536
C       -1.4582469152   -0.5563153344    2.7487684390
C       -2.6115783175   -1.3634286152    3.2290920036
N       -1.2267235720    0.6707997376    3.2647136246
N       -0.7156806128   -1.0860516851    1.7670537892
N       -2.5938726319   -2.4188595949    3.9857099661
O       -3.8989705944   -0.9695011801    2.9215367247
H        1.4489819084    1.4266119946    1.4328991855
H        0.0087226224    2.3498989633    3.2125787108
H        0.9325565024   -0.8074019232    0.5184405926
H       -4.2610793226   -3.6057509009    4.7698228621
H       -5.7838334426   -1.8803036863    3.5090415584
16   

C        0.6067748338    0.8532069251    1.8029941659
C       -0.1030396107    1.3290784766    2.8818837935
C        0.2133473884   -0.3392850555    1.2374109030
C       -3.9162741473   -2.6687278433    4.3136649490
C       -4.6906457374   -1.9550884816    3.4565170197
C       -1.4743504222   -0.5152003559    2.7788121827
C       -2.6236319271   -1.3123750311    3.2916249820
N       -1.1385598351    0.6542793666    3.3655477915
N       -0.8227560545   -1.0161177907    1.7205709239
N       -2.6128503108   -2.2452491045    4.1933172265
O       -3.8919226424   -1.0850126592    2.7953371039
H        1.4504952396    1.4023268341    1.4100982018
H        0.1839291769    2.2664045720    3.3448502372
H        0.7553466485   -0.7331080180    0.3852084897
H       -4.2682949438   -3.4449534703    4.9830363164
H       -5.7603835204   -2.0629657397    3.3247681669
16   

C        0.6080917885    0.8434698359    1.7979051648
C       -0.0053584838    1.2833662796    2.9489278211
C        0.1045611288   -0.2780719080    1.1769961340
C       -3.9503979617   -2.5419397738    4.4111970282
C       -4.6735093249   -2.0361034188    3.3793104448
C       -1.5082699164   -0.4512970737    2.7972532127
C       -2.6578079717   -1.2296652904    3.3307606956
N       -1.0561257944    0.6433922156    3.4465677313
N       -0.9461702170   -0.9213656854    1.6742781813
N       -2.6771100467   -2.0238054795    4.3582639729
O       -3.8735048602   -1.2008370273    2.6761094766
H        1.4640442620    1.3646553177    1.3935829870
H        0.3717777501    2.1628536209    3.4583779827
H        0.5716696599   -0.6438118507    0.2697179154
H       -4.3160900557   -3.2427324042    5.1525862878
H       -5.7091379667   -2.2624268810    3.1566548806
16   

C        0.6142320289    0.8340281693    1.7941070321
C        0.0740885070    1.2197154790    2.9997737002
C        0.0274322548   -0.2144079501    1.1212253916
C       -3.9972027326   -2.4274898865    4.4664132468
C       -4.6381610559   -2.1271497892    3.3080046448
C       -1.5277878163   -0.4203437647    2.7957815768
C       -2.6806488808   -1.1826799398    3.3308197095
N       -0.9870910278    0.5987773455    3.4988790889
N       -1.0335638144   -0.8391441317    1.6203392914
N       -2.7588060165   -1.8288773053    4.4575632802
O       -3.8218649945   -1.3409586721    2.5680319275
H        1.4786347642    1.3399203030    1.3883510851
H        0.5185638534    2.0399773060    3.5519337048
H        0.4369448703   -0.5378473967    0.1710732565
H       -4.3946342156   -3.0432620154    5.2647636822
H       -5.6290841999   -2.4600775782    3.0242062799
16   

C        0.6078624023    0.8419506460    1.7944521964
C        0.1303489160    1.1598356381    3.0451299030
C       -0.0417135657   -0.1376848816    1.0776461180
C       -4.0519365377   -2.3226847634    4.5103540067
C       -4.5952618356   -2.2175448742    3.2711369268
C       -1.5379093742   -0.4096308674    2.7990505095
C       -2.6924606036   -1.1631347926    3.3296527631
N       -0.9309989212    0.5401698292    3.5448579783
N       -1.1030646304   -0.7609637122    1.5777469089
N       -2.8478532445   -1.6583059102    4.5254558056
O       -3.7513528005   -1.4901401882    2.5028034953
H        1.4724028430    1.3469050896    1.3878374126
H        0.6248619771    1.9248976977    3.6328422361
H        0.3178201075   -0.4076247660    0.0912573668
H       -4.4928067778   -2.8489316722    5.3489116880
H       -5.5388157473   -2.6429809884    2.9517452587
16   

C        0.6097844129    0.8530768643    1.7843769260
C        0.1882085907    1.0971737986    3.0709159780
C       -0.0903132128   -0.0622657257    1.0315719383
C       -4.1019795974   -2.2345023722    4.5170244815
C       -4.5324476947   -2.3170690979    3.2330876325
C       -1.5265763238   -0.4181013507    2.7906759977
C       -2.6826881491   -1.1680852169    3.3132557480
N       -0.8674962299    0.4681798760    3.5704621432
N       -1.1464673258   -0.6942013396    1.5317398107
N       -2.9323388767   -1.5121183562    4.5473881972
O       -3.6505807003   -1.6523163649    2.4510654900
H        1.4697434587    1.3656347442    1.3775743977
H        0.7225154601    1.8110827390    3.6874556563
H        0.2240820321   -0.2734367873    0.0158694186
H       -4.5972553174   -2.6701146283    5.3769173891
H       -5.4253732513   -2.8270235722    2.8926135145
16   

C        0.6035093253    0.8600801668    1.7795688456
C        0.2377597911    1.0293170411    3.0947053702
C       -0.1437684346    0.0067034736    1.0001264393
C       -4.1593315093   -2.1558462367    4.5180608496
C       -4.4684538167   -2.4225249293    3.2246525647
C       -1.5155532864   -0.4385121097    2.7915777259
C       -2.6734916508   -1.1861795937    3.3086164109
N       -0.8090287276    0.3873822874    3.5962650181
N       -1.1915707643   -0.6373323437    1.5023516696
N       -3.0253022578   -1.3791905543    4.5518199329
O       -3.5440767780   -1.8220588833    2.4399827669
H        1.4562129861    1.3831763375    1.3709154527
H        0.8091290426    1.6942214471    3.7324423886
H        0.1253649273   -0.1443452245   -0.0390261060
H       -4.7144825821   -2.5003616791    5.3826883566
H       -5.3081064446   -3.0133838840    2.8794652390
16   

C        0.5898081246    0.8762615738    1.7727203877
C        0.2840120320    0.9680419202    3.1105954807
C       -0.2076047656    0.0878749137    0.9748307238
C       -4.2211153893   -2.0703377211    4.5082959522
C       -4.4054235115   -2.5124791053    3.2395693708
C       -1.5081915876   -0.4497870830    2.7943051359
C       -2.6678672084   -1.1944533766    3.3104140411
N       -0.7525631354    0.3131525754    3.6165125401
N       -1.2458837770   -0.5681688463    1.4812459901
N       -3.1237759062   -1.2424826400    4.5340625255
O       -3.4373307699   -1.9737802109    2.4629310405
H        1.4342987603    1.4097741639    1.3604946312
H        0.8948015787    1.5817908930    3.7629128630
H        0.0129490414   -0.0005466864   -0.0828191790
H       -4.8379543882   -2.3277226965    5.3613639518
H       -5.1902335107   -3.1801753079    2.9055973935
