29   

C        1.1737642704   -1.0436703016    0.1871688187
C        1.5359711631   -2.1913608569    0.8947758566
C        1.0122552861    0.1668611357    0.8650835854
C        1.7282213467   -2.1278906642    2.2790981880
C        1.1998646505    0.2265367147    2.2513678216
C        1.9410687749   -0.1059212635    6.4292299260
C        2.8851812632   -1.1624922764    6.1912286673
C        1.5456164976   -0.9251529723    2.9872797713
C        1.2015942392    0.0118984549    5.2870464126
C       -0.0428085619    0.8342774760    5.2069153462
C       -2.2486566430    1.4702052310    4.3060587509
C       -1.4021779763   -0.8426758530    3.9397930949
N        2.7130276146   -1.6386280733    4.9857066015
N        1.7321341875   -0.8968843487    4.3879068174
N       -1.1477143274    0.5177544968    4.4052434701
O       -0.1681579353    1.7764317741    5.9949470229
H        1.0272977802   -1.0911726914   -0.8863091948
H        1.6711909785   -3.1325012351    0.3731083323
H        0.7471668336    1.0635154354    0.3158123169
H        2.0130205249   -3.0249265203    2.8185722109
H        1.0891333768    1.1820929424    2.7500622751
H        1.7915273866    0.4333826283    7.3576525797
H        3.6064721323   -1.5321276848    6.9109174198
H       -2.8546486836    1.2620231289    3.4185589585
H       -1.8647488655    2.4913370774    4.2097305779
H       -2.8837551430    1.4106497321    5.1955310886
H       -2.4546629484   -1.1001477573    4.0955655128
H       -0.8152600432   -1.5756133069    4.5014308542
H       -1.1801520914   -0.9366797205    2.8726318762
29   

C        1.1639285436   -1.0077282641    0.1712663024
C        1.5425791821   -2.1528872391    0.8740309135
C        0.9907800948    0.1984164729    0.8535511827
C        1.7385530626   -2.0915552426    2.2579925568
C        1.1826854124    0.2561522113    2.2391682407
C        1.8411235685   -0.1686184195    6.4566994345
C        2.7885232237   -1.2233557384    6.2202188067
C        1.5438101976   -0.8935530757    2.9715852449
C        1.1649125257    0.0005662406    5.2839304068
C       -0.0354678080    0.8745839356    5.1241344206
C       -2.2583305512    1.4493406268    4.2118144564
C       -1.4207672985   -0.8935268830    4.0193369190
N        2.6754964952   -1.6446352475    4.9868689741
N        1.7287160745   -0.8712500517    4.3734629259
N       -1.1707394690    0.4947895272    4.3967875811
O       -0.0809562703    1.9386467130    5.7490483772
H        1.0139115156   -1.0534100004   -0.9017871892
H        1.6869718562   -3.0906861183    0.3488671940
H        0.7137301638    1.0939074450    0.3082579992
H        2.0344246299   -2.9879173083    2.7925204502
H        1.0655936516    1.2113972248    2.7367377320
H        1.6587918901    0.3460016364    7.3929524188
H        3.4721361940   -1.6283707455    6.9574310670
H       -2.8676487474    1.1694547107    3.3465762913
H       -1.8627869549    2.4527985374    4.0223768642
H       -2.8935193082    1.4782231237    5.1026068662
H       -2.4748135064   -1.1413256259    4.1799633300
H       -0.8381248326   -1.5875582686    4.6328317018
H       -1.1841995527   -1.0559082254    2.9633858773
29   

C        1.1454003910   -0.9759820708    0.1833776047
C        1.5224169305   -2.1163058127    0.8945314855
C        0.9904241024    0.2386415502    0.8542381698
C        1.7332016710   -2.0419262336    2.2757892260
C        1.1983224562    0.3099233402    2.2367133467
C        1.7939609910   -0.1595695560    6.4885401200
C        2.7288796292   -1.2276071512    6.2589838096
C        1.5558659993   -0.8350120873    2.9794717108
C        1.1735022961    0.0527941478    5.2934849039
C        0.0269390464    0.9823926843    5.0549213552
C       -2.2095697393    1.5282768889    4.1414533333
C       -1.4301482671   -0.8462256887    4.1716680487
N        2.6587455240   -1.6108164576    5.0095186299
N        1.7509629454   -0.8029417044    4.3808963546
N       -1.1524999351    0.5643727734    4.4271522552
O        0.0913661450    2.1411820182    5.4759504359
H        0.9830181201   -1.0316502332   -0.8873818431
H        1.6534818742   -3.0607385285    0.3779006805
H        0.7157450395    1.1309931515    0.3025860081
H        2.0262152146   -2.9359235468    2.8157073555
H        1.0990498932    1.2746205273    2.7195590990
H        1.5932974233    0.3424665270    7.4275623527
H        3.3757064772   -1.6661524908    7.0100751316
H       -2.7904356988    1.2055937918    3.2715649784
H       -1.7897852109    2.5113286911    3.9040211330
H       -2.8777441839    1.6245498966    5.0027194810
H       -2.4922520193   -1.0556389381    4.3336615877
H       -0.8721816885   -1.4946277513    4.8545000777
H       -1.1773501304   -1.1070204800    3.1393027750
29   

C        1.1773468512   -0.9941268006    0.1561618385
C        1.5429791642   -2.1487900170    0.8495519509
C        1.0553284095    0.2154293869    0.8422668799
C        1.7733633394   -2.0939092658    2.2286559472
C        1.2841543058    0.2676854467    2.2221721108
C        1.8053193849   -0.3621140659    6.4942048568
C        2.7298731971   -1.4340803749    6.2404045297
C        1.6279985565   -0.8921980851    2.9491088299
C        1.2447127771   -0.0707515946    5.2871170736
C        0.1549721515    0.9173344362    5.0037230148
C       -2.0972288725    1.4839630188    4.1216783390
C       -1.3955302734   -0.9089530803    4.3145516936
N        2.7067696630   -1.7421479152    4.9681803720
N        1.8384089579   -0.8837426295    4.3497872294
N       -1.0738415166    0.5059204358    4.4759917366
O        0.3357994361    2.1149169581    5.2399922055
H        0.9987872106   -1.0346021181   -0.9126796870
H        1.6494633770   -3.0895563521    0.3207894332
H        0.7906611307    1.1192954015    0.3046289798
H        2.0559300347   -3.0000886525    2.7534978676
H        1.2142957479    1.2315525091    2.7117146290
H        1.5824363851    0.0963996394    7.4500604761
H        3.3384645377   -1.9269627055    6.9897539046
H       -2.6223329867    1.1651171093    3.2157088834
H       -1.6591835366    2.4648035512    3.9108593161
H       -2.8195317502    1.5878182260    4.9370378536
H       -2.4678279077   -1.0716575155    4.4621893901
H       -0.8750921288   -1.5243340476    5.0553284793
H       -1.1250694663   -1.2501313399    3.3103114895
29   

C        1.2177631073   -1.0009795993    0.1140838920
C        1.5974172447   -2.1460353040    0.8153250673
C        1.0793572737    0.2109000446    0.7925195271
C        1.8245734448   -2.0793531803    2.1944326708
C        1.3057007718    0.2750732477    2.1723533237
C        1.7020830497   -0.4473423300    6.4753545960
C        2.6629293576   -1.4871518007    6.2238408411
C        1.6627393171   -0.8752567882    2.9084347718
C        1.2135677790   -0.1039027503    5.2510641705
C        0.1515225683    0.9037023445    4.9194406818
C       -2.1454927975    1.4452964138    4.1294954482
C       -1.4527232972   -0.9386870268    4.4727784616
N        2.7230234503   -1.7281159685    4.9383683927
N        1.8712832429   -0.8589279695    4.3103314219
N       -1.1159900084    0.4813414327    4.5076572914
O        0.4045305853    2.1100874189    4.9669861610
H        1.0413942813   -1.0503557922   -0.9547154602
H        1.7171842013   -3.0886466023    0.2927875875
H        0.8045915573    1.1082735467    0.2491311490
H        2.1176147661   -2.9794206447    2.7238762437
H        1.2265887031    1.2432247632    2.6511151779
H        1.4205246381   -0.0364539485    7.4371802763
H        3.2386120033   -2.0051472832    6.9821964761
H       -2.2408564381    1.4803038758    3.0397494753
H       -1.9137432552    2.4523644677    4.4898961652
H       -3.1089709446    1.1612507373    4.5639042424
H       -2.5331675920   -1.0798207447    4.5753008655
H       -0.9786229727   -1.4790592077    5.2983857463
H       -1.1322763164   -1.3804781286    3.5237300936
29   

C        1.3473765545   -1.0828019127    0.0207542119
C        1.7223781355   -2.2035292091    0.7620781970
C        1.1815999754    0.1452922132    0.6622826050
C        1.9182854688   -2.0958077821    2.1434444546
C        1.3766189660    0.2500264254    2.0444643775
C        1.6084761956   -0.4672822902    6.3885392562
C        2.6123909046   -1.4722968849    6.1708115759
C        1.7299653888   -0.8738834184    2.8211873475
C        1.1899171973   -0.1014393362    5.1446022832
C        0.1405804474    0.9081074520    4.7721946150
C       -2.2073887314    1.4635176685    4.1828142156
C       -1.5483394793   -0.9059345847    4.6866601162
N        2.7575534934   -1.6752769542    4.8860221785
N        1.9169162870   -0.8176668693    4.2259872598
N       -1.1767553578    0.4992086332    4.5547495897
O        0.4462165882    2.0917545157    4.6070035900
H        1.1962243800   -1.1631315336   -1.0499924827
H        1.8634879028   -3.1589071746    0.2689833232
H        0.9112794165    1.0249777241    0.0886064062
H        2.2091790448   -2.9784084982    2.7024419090
H        1.2817163930    1.2315286398    2.4889365378
H        1.2623905815   -0.0863613225    7.3414909790
H        3.1578851304   -1.9929218423    6.9494061141
H       -2.3400940170    1.4695784428    3.0964888819
H       -1.9470023261    2.4748586211    4.5110348587
H       -3.1592730835    1.2063590850    4.6577102046
H       -2.6220000839   -1.0048781713    4.8740464624
H       -1.0305962637   -1.3761320322    5.5285026391
H       -1.3029863276   -1.4476331195    3.7673413451
29   

C        1.5947340022   -1.1316900272   -0.1230752001
C        1.8735713143   -2.2568915537    0.6527930651
C        1.4353809743    0.1092442381    0.4944784998
C        1.9795360273   -2.1395951890    2.0433066730
C        1.5418172370    0.2228080680    1.8856469056
C        1.4485532834   -0.5478781078    6.2534110952
C        2.4851910068   -1.5264412038    6.0812059500
C        1.7956889824   -0.9028193192    2.6957517887
C        1.1108955451   -0.1518180714    4.9932783361
C        0.0592284850    0.8472490384    4.6035484399
C       -2.3207006323    1.4847688395    4.3316997790
C       -1.7125318952   -0.8471723250    5.0208708117
N        2.7199559234   -1.6927263321    4.8053094784
N        1.9070760131   -0.8366558515    4.1082084460
N       -1.2934391798    0.5068021699    4.6729953190
O        0.3782588206    1.9764862922    4.2209970149
H        1.5143056865   -1.2183319135   -1.2009108783
H        2.0109866340   -3.2226918973    0.1794931198
H        1.2413408142    0.9926959533   -0.1037290281
H        2.1992005689   -3.0253955143    2.6289420173
H        1.4661424911    1.2129917136    2.3100755070
H        1.0294092751   -0.2017056051    7.1900772650
H        2.9884274061   -2.0557849543    6.8820564214
H       -2.5415493083    1.4422977490    3.2607291147
H       -2.0002667618    2.4994942297    4.5895766884
H       -3.2379240324    1.2825490029    4.8937650072
H       -1.8833996443   -0.9272488353    6.0987724994
H       -0.9663199784   -1.5895001061    4.7205641564
H       -2.6385418334   -1.1015372857    4.4955793525
29   

C        1.7709626979   -1.1433373585   -0.2347408825
C        1.9396410639   -2.2807293166    0.5553520936
C        1.6574875902    0.1079043964    0.3729077918
C        1.9791834781   -2.1642975416    1.9493621166
C        1.7008418510    0.2201736868    1.7677654603
C        1.3238741507   -0.6489689374    6.1308339570
C        2.4138812067   -1.5707483594    5.9823620670
C        1.8379121764   -0.9159620345    2.5891527372
C        1.0225179113   -0.2308855503    4.8669839108
C       -0.0455616581    0.7431753639    4.4728855156
C       -2.4144709920    1.4712729383    4.4729167593
C       -1.8022021065   -0.8114682275    5.3047517647
N        2.7160838546   -1.6860785933    4.7159085713
N        1.8956230142   -0.8500845275    4.0033158437
N       -1.3849650344    0.4825350904    4.7750955033
O        0.2399787320    1.8000665705    3.9018810902
H        1.7416640077   -1.2290564551   -1.3152074881
H        2.0441380131   -3.2547683511    0.0906701633
H        1.5497089314    0.9994789531   -0.2347912019
H        2.1167007265   -3.0572541237    2.5489427042
H        1.6730601043    1.2134802289    2.1919532949
H        0.8511578437   -0.3476909031    7.0574010754
H        2.9053310722   -2.0984372234    6.7915759842
H       -2.7678527092    1.3474278178    3.4446653207
H       -2.0299431508    2.4888540114    4.5981140441
H       -3.2609790407    1.3589645732    5.1577043323
H       -1.8027286832   -0.7934437843    6.3988911515
H       -1.1444700370   -1.6150113520    4.9580348512
H       -2.8103163774   -1.0553021334    4.9546898807
29   

C        1.8729267609   -1.2134966350   -0.2512491764
C        3.0023551439   -1.5392316322    0.5010221856
C        0.6758377505   -0.9053062220    0.3970305632
C        2.9328826271   -1.5526831140    1.8987536425
C        0.6107303284   -0.9134441952    1.7954798438
C        1.1150884265   -1.0137042584    6.1069947794
C        2.1174569079   -2.0359044982    5.9717137427
C        1.7430057179   -1.2256792065    2.5779320093
C        0.9058705891   -0.5408580848    4.8435311090
C        0.1120838850    0.6510356256    4.4087066115
C       -1.9431277667    2.0337765026    4.4708848921
C       -1.9304881865   -0.2422283465    5.5185641978
N        2.4658997498   -2.1450518625    4.7157860222
N        1.7121578722   -1.2573757605    3.9944477526
N       -1.2157590133    0.8158755908    4.8131478458
O        0.6328949512    1.5145926555    3.7006846186
H        1.9247768147   -1.2019244214   -1.3341326264
H        3.9355379157   -1.7798059340    0.0043602112
H       -0.2064940459   -0.6604254819   -0.1833323184
H        3.8186513369   -1.8058908855    2.4706926346
H       -0.3403026045   -0.6907925357    2.2603975866
H        0.6854126079   -0.6500266706    7.0318698874
H        2.5400080309   -2.6118149798    6.7869378273
H       -2.4251689056    1.9258160396    3.4944835657
H       -1.2711275184    2.8979480402    4.4429422282
H       -2.7073702468    2.2438419884    5.2258680922
H       -1.8032630058   -0.1330059379    6.6000191244
H       -1.5775655331   -1.2319696095    5.2112042130
H       -2.9988358083   -0.1987329299    5.2837317003
29   

C        1.9623810337   -1.2953701147   -0.2718073129
C        3.0936531823   -1.5123004130    0.5165430890
C        0.7249403787   -1.0804763317    0.3381017899
C        2.9851929487   -1.5111137190    1.9118114282
C        0.6211849016   -1.0725887930    1.7343637810
C        0.9853912514   -1.0983859701    6.0519649430
C        2.0304324393   -2.0800735770    5.9481787411
C        1.7529266101   -1.2752944714    2.5510803209
C        0.8075588372   -0.6158368565    4.7854583254
C        0.0318693726    0.5782836466    4.3326258500
C       -1.9031287882    2.1146071195    4.4965506763
C       -1.9509348128   -0.0785818314    5.6994915023
N        2.4400334351   -2.1544304122    4.7092091185
N        1.6818332730   -1.2894420980    3.9657088271
N       -1.2274030218    0.8747324507    4.8657341275
O        0.4936794417    1.3300982378    3.4714707121
H        2.0444425438   -1.2949043163   -1.3528372082
H        4.0579252986   -1.6791831715    0.0500205664
H       -0.1577776677   -0.9188291192   -0.2699840044
H        3.8710238413   -1.6796833659    2.5139619525
H       -0.3538518078   -0.9178379156    2.1777928260
H        0.5204120400   -0.7573065030    6.9679049810
H        2.4400332505   -2.6500715331    6.7741001954
H       -2.4625173898    1.9793916737    3.5658433895
H       -1.1818585251    2.9280554418    4.3647290781
H       -2.5942713048    2.4210407575    5.2881530120
H       -1.7257134252    0.0901998089    6.7569938541
H       -1.6974222019   -1.1096333450    5.4327654888
H       -3.0298044506    0.0308880150    5.5493787299
29   

C        2.1888796955   -1.5701956375   -0.1653714649
C        3.2986391100   -1.6411562318    0.6786103961
C        0.9091418545   -1.4551878410    0.3818983349
C        3.1261011461   -1.5940176007    2.0665548922
C        0.7411489909   -1.4007480982    1.7709968615
C        0.8905037418   -1.2532607384    6.0909620552
C        1.9794310621   -2.1898191579    6.0531007862
C        1.8485786952   -1.4548886034    2.6412492665
C        0.7604808170   -0.7808675991    4.8125864785
C        0.0067297344    0.4053014798    4.3073603893
C       -1.7974595369    2.0906653431    4.4687643626
C       -1.9124832131    0.0248374522    5.8674481383
N        2.4659405923   -2.2458702156    4.8425986731
N        1.7132889139   -1.4207112316    4.0503966737
N       -1.1767883165    0.8463084808    4.9134341509
O        0.3959766508    1.0184575997    3.3103786921
H        2.3204998033   -1.6048671637   -1.2408949264
H        4.2951490348   -1.7300154746    0.2610674123
H        0.0438272643   -1.4057531794   -0.2690263222
H        3.9940415020   -1.6499469220    2.7139675675
H       -0.2608500118   -1.3199028546    2.1729703844
H        0.3790582513   -0.9261055161    6.9861464864
H        2.3651387232   -2.7384714164    6.9045895736
H       -2.3987952509    1.9155113720    3.5713827811
H       -1.0358622942    2.8458485961    4.2471920836
H       -2.4396535549    2.4993458765    5.2553959749
H       -1.6018643844    0.2551530149    6.8911320552
H       -1.7634014185   -1.0410487962    5.6674061478
H       -2.9871687370    0.2140662363    5.7791931586
29   

C        2.7421384094   -0.9866870852   -0.0929578134
C        2.7255198866    0.0359940670    0.8585032268
C        2.2627303772   -2.2539629118    0.2442144593
C        2.2197171854   -0.2065137449    2.1416532802
C        1.7649435031   -2.4938612441    1.5298888834
C        0.5213491090   -1.5772580294    5.8751229352
C        1.2573484316   -2.7954039131    5.6851376341
C        1.7142568194   -1.4725993607    2.4967376073
C        0.5018802141   -0.9512793892    4.6548423656
C       -0.3477061885    0.1682939285    4.1472933270
C       -1.9734404750    2.0113175881    4.4252476162
C       -0.7307906467    1.1696998667    6.4148690220
N        1.6249151179   -2.8931266306    4.4375987870
N        1.2167671990   -1.7581934030    3.7907118083
N       -1.0409063055    1.0431866552    4.9968027880
O       -0.4298266536    0.3979882272    2.9376911475
H        3.1261943706   -0.7980301165   -1.0890087587
H        3.1014120271    1.0201071213    0.6035362396
H        2.2730130868   -3.0526954338   -0.4886944280
H        2.2176060639    0.5960587628    2.8687837106
H        1.3965401891   -3.4809891389    1.7854491979
H        0.0049627782   -1.3159395056    6.7875841950
H        1.4440558856   -3.5415117208    6.4488767956
H       -2.6843335065    2.3532086567    5.1841634509
H       -2.5556979873    1.5555382149    3.6173519120
H       -1.4293970034    2.8750403029    4.0305699972
H        0.3331115385    0.9902151161    6.5998015735
H       -1.3371007190    0.4747840949    7.0039217404
H       -0.9402421247    2.1875033027    6.7595529385
29   

C        2.7498169813   -0.9419134449   -0.0461754381
C        2.5592536677    0.0894468504    0.8759862526
C        2.4209878575   -2.2527212242    0.3038949373
C        2.0308883976   -0.1889929089    2.1424942214
C        1.9001259585   -2.5281108645    1.5732569230
C        0.3559907761   -1.6778804567    5.8402264478
C        1.1434206804   -2.8690676757    5.6808301602
C        1.6773311914   -1.5025913288    2.5115705090
C        0.3790611164   -1.0498206716    4.6238956977
C       -0.4803542886    0.0571704468    4.1083579227
C       -1.9456791931    2.0256861368    4.4215333461
C       -0.5025538814    1.2516181689    6.3073139790
N        1.5791859564   -2.9439432682    4.4521820290
N        1.1583423117   -1.8218538512    3.7898414179
N       -0.9982535819    1.0492705023    4.9509979525
O       -0.7360489795    0.1454218243    2.9048340872
H        3.1519465926   -0.7262031073   -1.0295575023
H        2.8186232824    1.1080243017    0.6111225689
H        2.5657490222   -3.0584484626   -0.4068209796
H        1.9000309112    0.6252679017    2.8438930253
H        1.6479533959   -3.5493698138    1.8359935944
H       -0.2187625282   -1.4226132668    6.7202545100
H        1.3189568639   -3.6127908560    6.4495216639
H       -2.5398695009    2.4597743959    5.2319218396
H       -2.6447530580    1.5488548237    3.7262866736
H       -1.4133969602    2.8270156887    3.8998635541
H        0.5474706416    0.9538978648    6.3919739938
H       -1.1054743352    0.6858156236    7.0241265462
H       -0.5510342303    2.3125472640    6.5730583459
29   

C        2.7493590684   -0.8178395461    0.0334261905
C        2.4329108297    0.2011507774    0.9339419888
C        2.5434132129   -2.1499198365    0.3960340880
C        1.9019670915   -0.1114567739    2.1912135356
C        2.0194090137   -2.4593059524    1.6562936599
C        0.2467325401   -1.7247782951    5.8553933630
C        1.0918220570   -2.8795151931    5.7173986663
C        1.6720695461   -1.4492677704    2.5738600771
C        0.3014002958   -1.0834634010    4.6494969952
C       -0.5526318550    0.0291167103    4.1342942633
C       -1.8478437018    2.1149823993    4.4557792714
C       -0.2836261059    1.3338888562    6.2452924021
N        1.5935016030   -2.9134990669    4.5109342769
N        1.1515583578   -1.8024286367    3.8430418466
N       -0.9108092126    1.1098732509    4.9476333357
O       -0.9594893640    0.0132212175    2.9705622574
H        3.1542777990   -0.5759967707   -0.9427464387
H        2.5979354777    1.2368392955    0.6597007487
H        2.7861715623   -2.9464137839   -0.2982129364
H        1.6803397194    0.6992948401    2.8729970701
H        1.8627916351   -3.4976373272    1.9265441921
H       -0.3723526533   -1.4868941370    6.7107505798
H        1.2636251717   -3.6264052841    6.4838551553
H       -2.3683665783    2.5910933021    5.2927905394
H       -2.6119618265    1.6578147285    3.8182683545
H       -1.3165689155    2.8809226506    3.8826354945
H        0.7427220593    0.9532599115    6.2597102167
H       -0.8626143403    0.8508979843    7.0383960752
H       -0.2262665877    2.4064272121    6.4570670773
29   

C        2.7667316275   -0.7651773715    0.1283888543
C        2.3338443073    0.2278996341    1.0085643682
C        2.6854527069   -2.1063706329    0.5055358032
C        1.8115777932   -0.1200763556    2.2600144888
C        2.1688045816   -2.4511296906    1.7596779577
C        0.2120306553   -1.8673846134    5.8988619155
C        1.1241113382   -2.9722895766    5.7754865248
C        1.7061728076   -1.4699382995    2.6581132181
C        0.2767980633   -1.2081992148    4.7051343263
C       -0.5889520402   -0.0975406828    4.1991355012
C       -1.7197193486    2.0874713202    4.5036568401
C       -0.0279643468    1.3068465583    6.1777747337
N        1.6766698099   -2.9545950106    4.5901319481
N        1.1959826240   -1.8599714072    3.9214251208
N       -0.7888537085    1.0593998076    4.9579918393
O       -1.1541739580   -0.2030682764    3.1093466093
H        3.1661453222   -0.4959989499   -0.8429346239
H        2.4033914911    1.2715578325    0.7235468698
H        3.0198352402   -2.8831091252   -0.1728779576
H        1.5071472767    0.6787954699    2.9228409773
H        2.1098754476   -3.4972289834    2.0389948451
H       -0.4416885439   -1.6610440437    6.7369246928
H        1.3087431379   -3.7212470623    6.5369255970
H       -2.1652320126    2.6003437236    5.3619449951
H       -2.5418487413    1.6491992651    3.9282611398
H       -1.1998645355    2.8202845821    3.8791038858
H        0.9712733510    0.8634211487    6.1187590254
H       -0.5543860340    0.8971983769    7.0453727447
H        0.1100956481    2.3827023794    6.3256700075
29   

C        2.6907722842   -0.6340822358    0.1099327896
C        1.3190645620   -0.4487194978    0.2882287526
C        3.4371772687   -1.2613559569    1.1078183367
C        0.6973492928   -0.8790139565    1.4665471034
C        2.8122525177   -1.6870411992    2.2853795186
C       -0.0715191460   -1.9977478613    5.7197733088
C        0.7393613746   -3.1614009151    5.5000029713
C        1.4338686223   -1.4858559194    2.5026593874
C        0.0332006179   -1.2568449377    4.5782598119
C       -0.6284140867    0.0574184245    4.2958157052
C       -1.0898181429    2.4180441203    4.8938314054
C        0.6627381378    1.1277806513    6.1349684554
N        1.2852271419   -3.0932179515    4.3142894764
N        0.8466647000   -1.9444739466    3.7077947572
N       -0.3781314533    1.1633192338    5.1129771843
O       -1.4220966647    0.1793742016    3.3577346148
H        3.1708421176   -0.3044396903   -0.8046631112
H        0.7275268921    0.0167739646   -0.4922958848
H        4.5004918655   -1.4231336017    0.9707341223
H       -0.3756595654   -0.7725664540    1.5351134075
H        3.4054481844   -2.1780395180    3.0488046429
H       -0.6491027096   -1.7680677860    6.6065659726
H        0.8863521149   -3.9679659281    6.2089827682
H       -1.1665088356    2.9790737808    5.8305739410
H       -2.1104983485    2.2343483272    4.5424707794
H       -0.5623372674    3.0280480465    4.1541221461
H        1.4740405996    0.4483359359    5.8545563001
H        0.2437950210    0.8113704345    7.0950853096
H        1.1089878266    2.1202699461    6.2537784058
29   

C        2.6616867910   -0.4987516633    0.2658663058
C        1.3002492911   -0.2752508675    0.4737081914
C        3.3929619807   -1.2225209293    1.2077750597
C        0.6741036084   -0.7631118958    1.6267464059
C        2.7636468777   -1.7089688311    2.3592344204
C       -0.2100021913   -2.1294347588    5.7535376597
C        0.6669168720   -3.2478399021    5.5484735374
C        1.3954176021   -1.4738085430    2.6077715362
C       -0.0835061521   -1.3596964462    4.6353602116
C       -0.7724555528   -0.0572251584    4.3434924891
C       -1.0511747916    2.3745498906    4.7347330365
C        0.8007754582    1.1206613060    5.8668998742
N        1.2688410164   -3.1237495170    4.3939370148
N        0.8049128516   -1.9821670550    3.7929969639
N       -0.3623704634    1.1132651733    4.9854817462
O       -1.7060948214   -0.0077137179    3.5378058060
H        3.1453895766   -0.1223572619   -0.6285972123
H        0.7198203923    0.2665708654   -0.2648894138
H        4.4486584399   -1.4111191893    1.0477738951
H       -0.3917058215   -0.6124346904    1.7142556611
H        3.3486220401   -2.2713772582    3.0785155277
H       -0.8376069586   -1.9441590080    6.6164657635
H        0.8177685387   -4.0637319214    6.2458807098
H       -0.9866852617    3.0228740366    5.6142907307
H       -2.1143605201    2.2094339506    4.5316904488
H       -0.6005652471    2.8873339522    3.8794179525
H        1.5345806289    0.3642121009    5.5712167032
H        0.4950586390    0.9377919521    6.9015932399
H        1.3080314812    2.0891430279    5.8134033284
29   

C        2.5649377080   -0.2870978562    0.4779748772
C        1.2079795549   -0.0651158953    0.7158698665
C        3.2970254514   -1.0886700787    1.3541742199
C        0.5870934700   -0.6317989251    1.8351438789
C        2.6736172473   -1.6552358615    2.4715559884
C       -0.3609342349   -2.2752264001    5.8150478612
C        0.5590633935   -3.3561128869    5.5901711746
C        1.3111546075   -1.4241517939    2.7512989169
C       -0.2064912526   -1.4432217280    4.7471847257
C       -0.9112521340   -0.1459593094    4.4653310482
C       -1.0007890929    2.3324066612    4.5858801304
C        0.9521254022    1.0815826522    5.5483523954
N        1.2044518378   -3.1559463042    4.4693000356
N        0.7277699842   -1.9998659459    3.9088703224
N       -0.3346676171    1.0629867193    4.8599583157
O       -1.9747776908   -0.1378004425    3.8403775780
H        3.0451738646    0.1521378660   -0.3893441694
H        0.6281222657    0.5392336478    0.0269907009
H        4.3493520397   -1.2744906862    1.1701064483
H       -0.4758690583   -0.4693231180    1.9516543074
H        3.2597406490   -2.2749983068    3.1412058650
H       -1.0316532867   -2.1536505395    6.6566832341
H        0.7068505135   -4.2018538986    6.2517631163
H       -0.8324859564    3.0369024828    5.4063019137
H       -2.0835818928    2.2028520436    4.4900299713
H       -0.6142251053    2.7656784367    3.6581970714
H        1.0362230117    0.2507424908    6.2557765667
H        1.0687452329    2.0055428037    6.1230905305
H        1.7683123009    1.0170269711    4.8214100557
29   

C        2.5194617746   -0.1958158457    0.6064213229
C        1.1573370755   -0.0135332500    0.8502222706
C        3.2744117310   -0.9948017721    1.4658921642
C        0.5538139138   -0.6169654689    1.9596837435
C        2.6687973332   -1.5982110531    2.5736506953
C       -0.4550197731   -2.4053868710    5.8294719526
C        0.5169954688   -3.4433555895    5.6162661864
C        1.3022893900   -1.4062111850    2.8594010931
C       -0.2625598471   -1.5171608891    4.8148237542
C       -0.9730050314   -0.2187900299    4.5643216072
C       -0.9754204526    2.2685972158    4.5011346514
C        1.0296975626    1.0241513792    5.3462935499
N        1.2244356256   -3.1700650614    4.5490578904
N        0.7359187914   -2.0097754997    4.0101018349
N       -0.3193081131    0.9963527290    4.7890318399
O       -2.1226996172   -0.2166835826    4.1173351724
H        2.9867041832    0.2725983999   -0.2527344140
H        0.5613621925    0.5895676830    0.1741065648
H        4.3308810251   -1.1494325279    1.2765134185
H       -0.5130359572   -0.4821265486    2.0877622143
H        3.2709879808   -2.2148693888    3.2319819684
H       -1.1763683677   -2.3410429075    6.6349090554
H        0.6557757590   -4.3116566326    6.2500065579
H       -0.7833821709    2.9854061810    5.3054900034
H       -2.0612998970    2.1578772548    4.4208832319
H       -0.5972076344    2.6782516025    3.5593317540
H        1.1703828427    0.2274453110    6.0837777882
H        1.2140082957    1.9729996501    5.8596080854
H        1.7710228193    0.9100259461    4.5488105586
29   

C        2.4916240744   -0.1853581400    0.6537108843
C        1.1288047308   -0.0170871963    0.9048504629
C        3.2607162111   -0.9736343237    1.5109271656
C        0.5386670146   -0.6240145351    2.0195843415
C        2.6683353214   -1.5812139633    2.6235470212
C       -0.5421695342   -2.4971536630    5.7936448182
C        0.4589847360   -3.5106349857    5.5965766292
C        1.3018460231   -1.4029742812    2.9155584396
C       -0.3044776188   -1.5586529115    4.8350289968
C       -1.0105165632   -0.2511427580    4.6457890308
C       -0.9972370293    2.2272169527    4.4750255278
C        1.0716003133    1.0112988651    5.1800269895
N        1.2256550042   -3.1805321449    4.5879945131
N        0.7459152466   -2.0083626394    4.0691247716
N       -0.3218439104    0.9626210295    4.7471361546
O       -2.2195759183   -0.2362045782    4.3993686219
H        2.9488421271    0.2859455643   -0.2092888402
H        0.5228878888    0.5783757888    0.2307856659
H        4.3178007233   -1.1167549363    1.3158375091
H       -0.5281899853   -0.4986957274    2.1598392328
H        3.2796485585   -2.1901308535    3.2808015802
H       -1.3059487418   -2.4732954302    6.5615279823
H        0.5756979223   -4.4019540538    6.2021922920
H       -1.3369082957    2.6833789133    5.4098277048
H       -1.8602266911    2.0876662119    3.8161253468
H       -0.3135962429    2.9153273059    3.9677577867
H        1.3117985866    0.1786765459    5.8488677367
H        1.2615496151    1.9333097280    5.7385124726
H        1.7416856412    0.9820065566    4.3150555847
29   

C        0.8284886799   -1.7966193724    0.3697520963
C        0.0696791041   -2.2706573017    1.4416175457
C        1.8927085719   -0.9251854810    0.6069317941
C        0.3656965656   -1.8627507567    2.7475827892
C        2.1890866549   -0.5216997142    1.9135244914
C        1.6507423237   -0.1060004446    6.4779032931
C        2.9987879161   -0.0055327773    5.9878084876
C        1.4212057832   -0.9636596143    3.0081813793
C        0.8812775643   -0.3899416200    5.3891353612
C       -0.6118978269   -0.4657965447    5.3659277588
C       -2.8277267606    0.0790177430    4.4028068702
C       -0.7955121284    1.2894540446    3.5958278310
N        3.0131528295   -0.2196971524    4.6967093251
N        1.7330983056   -0.5135367663    4.3132439591
N       -1.3797446449    0.2521585025    4.4413153722
O       -1.1962928435   -1.1337085402    6.2242191178
H        0.5984378719   -2.1114804775   -0.6421441854
H       -0.7462804520   -2.9624624646    1.2636521648
H        2.4917462552   -0.5606484976   -0.2202957900
H       -0.2241946814   -2.2741028392    3.5578103077
H        3.0192581272    0.1555037202    2.0832603947
H        1.3114203672    0.0543103175    7.4943790930
H        3.8677208020    0.2350214390    6.5894189536
H       -3.3100457965    0.7609872542    5.1097593381
H       -3.1060844788   -0.9499468977    4.6532835998
H       -3.2059251367    0.2806606892    3.3955595096
H       -0.5721002168    0.8933453786    2.6003864646
H        0.1202230411    1.6967933682    4.0356863236
H       -1.4941926849    2.1253390935    3.4895406417
29   

C        0.8402554393   -1.7953742623    0.3555193487
C        0.0541306411   -2.2390475649    1.4211052783
C        1.9131374536   -0.9356437011    0.5972118319
C        0.3322077896   -1.8124732873    2.7252691461
C        2.1920700774   -0.5146902965    1.9020020965
C        1.6007379388   -0.1424611107    6.4679184601
C        2.9572980701   -0.0749627068    5.9977041378
C        1.3975305553   -0.9268998430    2.9888128042
C        0.8285750224   -0.3507885334    5.3626327906
C       -0.6643652449   -0.3104450103    5.3607007548
C       -2.8700985277    0.2237981470    4.3846147206
C       -0.8166065728    1.2634018936    3.4201561277
N        2.9788485084   -0.2348265096    4.6994916899
N        1.6935603540   -0.4650112989    4.2922380453
N       -1.4144767261    0.3169744641    4.3578233207
O       -1.2704062996   -0.7547579636    6.3405667141
H        0.6243974710   -2.1242118400   -0.6550782236
H       -0.7693354515   -2.9208185712    1.2391931222
H        2.5326745448   -0.5941941487   -0.2248001166
H       -0.2795828314   -2.1935100897    3.5341613798
H        3.0296496621    0.1520441637    2.0770844223
H        1.2553490460    0.0031006751    7.4848594123
H        3.8269566770    0.1089329503    6.6179640784
H       -3.2840375691    0.9513595692    5.0896822480
H       -3.1867420613   -0.7815943619    4.6815971579
H       -3.2824387579    0.4156221371    3.3889144323
H       -0.6562356176    0.7930507095    2.4452628808
H        0.1341399662    1.6541920478    3.7955025855
H       -1.4783947205    2.1246726602    3.2842612136
29   

C        0.8725464682   -1.7710758249    0.3557454238
C        0.0922605984   -2.2266751033    1.4209403832
C        1.9336666862   -0.8968081418    0.5981231790
C        0.3647957178   -1.7978046682    2.7256897542
C        2.2073351410   -0.4741241460    1.9033990281
C        1.6356093203   -0.2553513542    6.4841041012
C        2.9904716738   -0.1834376004    6.0113546220
C        1.4186865768   -0.8992531208    2.9891183936
C        0.8486586548   -0.3790486702    5.3747629033
C       -0.6385502552   -0.2458099821    5.4150934510
C       -2.8662476577    0.2420675412    4.4765774845
C       -0.8438622890    1.1837202336    3.3705811035
N        3.0021580008   -0.2587596884    4.7060413130
N        1.7112774910   -0.4421551600    4.2940416128
N       -1.4113593745    0.2896726121    4.3759861606
O       -1.2151247553   -0.4913273187    6.4788148774
H        0.6613764703   -2.1015991835   -0.6553059027
H       -0.7222395990   -2.9187922784    1.2378561434
H        2.5485533626   -0.5460267572   -0.2234834058
H       -0.2421229604   -2.1826396287    3.5366080857
H        3.0365040310    0.2024888943    2.0808624808
H        1.2998819631   -0.1499504892    7.5094602546
H        3.8661159877   -0.0524248328    6.6365945856
H       -3.2266797994    1.0294896123    5.1460005329
H       -3.1923036621   -0.7300305713    4.8613893713
H       -3.3216363004    0.3744253410    3.4900063853
H       -0.7364260867    0.6708774833    2.4101564484
H        0.1271278629    1.5775111062    3.6855516598
H       -1.4995106940    2.0484265717    3.2267433220
29   

C        0.9088334118   -1.7443212419    0.3592250707
C        0.1298333884   -2.2119979396    1.4204170967
C        1.9546661694   -0.8529802806    0.6067964185
C        0.3886609596   -1.7784014771    2.7265293200
C        2.2147309152   -0.4258302196    1.9133785078
C        1.6306230179   -0.3518095911    6.4976022557
C        2.9882001172   -0.2885283373    6.0328787450
C        1.4270061109   -0.8636294653    2.9942708690
C        0.8396798440   -0.3864030081    5.3829921666
C       -0.6360253400   -0.1487654662    5.4518281987
C       -2.8832546767    0.2758259511    4.5416154879
C       -0.8959359753    1.1204430868    3.3142827044
N        3.0022284781   -0.2826577840    4.7260543355
N        1.7089684218   -0.4093213094    4.3016038114
N       -1.4325548305    0.2816272817    4.3820641607
O       -1.1724074236   -0.1844767379    6.5623258979
H        0.7087333274   -2.0786049133   -0.6528494087
H       -0.6728193490   -2.9166468693    1.2329536636
H        2.5687288740   -0.4931644077   -0.2115344505
H       -0.2165618616   -2.1684219251    3.5364318764
H        3.0330901725    0.2622656897    2.0969399703
H        1.2980997343   -0.2802248616    7.5270777760
H        3.8645952871   -0.2163038222    6.6665614155
H       -3.2026417537    1.1304341979    5.1465774065
H       -3.2101633313   -0.6479870066    5.0306123228
H       -3.3751758901    0.3240714805    3.5649572878
H       -0.8293807146    0.5629281218    2.3755141434
H        0.0880573898    1.5213328471    3.5746836182
H       -1.5501418228    1.9831570501    3.1527841635
