23   

C        5.7000039348    1.7602112165    0.0652227552
C        4.7727680697    2.0879640882   -0.9234349914
C        5.4856006121    0.6380481823    0.8651667610
C        3.6365486255    1.2927406435   -1.1114235844
C        4.3483118292   -0.1559178675    0.6749331935
C        3.3976863882    0.1482551491   -0.3220298855
C        1.3270255868   -0.6473560978   -1.5648455397
C        2.1983112263   -0.6870352723   -0.5130619146
C        0.1892132326   -1.5997404677   -1.3689845175
C        1.7411792988   -1.7138808513    0.5142638396
C        0.8295703762   -2.5754298824   -0.3729920121
H        6.5808483206    2.3748712932    0.2125599054
H        4.9310625165    2.9611689764   -1.5459937526
H        6.2016098455    0.3797359970    1.6370457552
H        2.9307852222    1.5781864523   -1.8808306347
H        4.2252210190   -1.0149432962    1.3201337851
H        1.4458910539   -0.0288864381   -2.4460908162
H       -0.1209080731   -2.0962874762   -2.2938260241
H       -0.6561098449   -1.0751766127   -0.9115324310
H        1.1673354310   -1.2168682283    1.3029589891
H        2.5466275882   -2.3177692652    0.9401962020
H        0.1018299750   -3.1675891509    0.1908368909
H        1.4692693162   -3.2584096646   -0.9424397248
23   

C        5.6766886646    1.7465984686    0.0665800236
C        4.6709808670    2.1522271000   -0.8120348520
C        5.5464499482    0.5399925096    0.7562734531
C        3.5390799002    1.3507647163   -0.9997260304
C        4.4132840814   -0.2600648318    0.5665035884
C        3.3879415249    0.1268787584   -0.3171525404
C        1.4071578994   -0.7590295010   -1.6285642817
C        2.1913202213   -0.7122278493   -0.5124870485
C        0.2402919860   -1.6766197511   -1.4355960368
C        1.6315449795   -1.6215807353    0.5725220574
C        0.7810502922   -2.5578781054   -0.2999661796
H        6.5544410563    2.3658300356    0.2132078350
H        4.7652630970    3.0897672873   -1.3479877018
H        6.3253040085    0.2204125264    1.4392221759
H        2.7649726022    1.6874531680   -1.6783270008
H        4.3485326635   -1.1933550238    1.1101167837
H        1.6157132382   -0.2263659243   -2.5489613025
H       -0.0032070913   -2.2577482793   -2.3306049605
H       -0.6296257486   -1.1015435695   -1.1016174193
H        1.0016022369   -1.0384021740    1.2517945191
H        2.3876804419   -2.1786475187    1.1316470949
H       -0.0007658377   -3.0847266541    0.2562322791
H        1.4530618384   -3.2993700582   -0.7454939414
23   

C        5.6713874193    1.7393838630    0.0768844333
C        4.6016246942    2.2067060702   -0.6903570666
C        5.6120876520    0.4647471558    0.6458425048
C        3.4763862531    1.3981967030   -0.8885834560
C        4.4852066835   -0.3415989477    0.4455145515
C        3.4032627972    0.1089207824   -0.3287415061
C        1.4996781452   -0.8735556872   -1.6799114065
C        2.2086362474   -0.7352390689   -0.5238182256
C        0.3045394346   -1.7528623227   -1.4790194486
C        1.5561086867   -1.5166423168    0.6072323220
C        0.7488555325   -2.5246001506   -0.2259551591
H        6.5438767306    2.3641032409    0.2314293740
H        4.6414002172    3.1965329499   -1.1305567491
H        6.4398138152    0.0987807276    1.2425588703
H        2.6478523789    1.7728015317   -1.4778267793
H        4.4580231910   -1.3292477590    0.8891617985
H        1.7819404750   -0.4277087519   -2.6267468828
H        0.1110437123   -2.4168451972   -2.3273690901
H       -0.5746450166   -1.1362653251   -1.2648268425
H        0.8933966101   -0.8566569239    1.1760435455
H        2.2678458323   -2.0142029481    1.2721776417
H       -0.0797731081   -2.9826095066    0.3233700144
H        1.4346826653   -3.3157509399   -0.5477947309
23   

C        5.6726519479    1.7300691408    0.0829607442
C        4.5442027654    2.2474947670   -0.5591749180
C        5.6769642531    0.4013058354    0.5167880307
C        3.4240556432    1.4345542003   -0.7686015091
C        4.5547444971   -0.4086393418    0.3051472164
C        3.4191384829    0.0935790363   -0.3472131755
C        1.5873641163   -0.9993638584   -1.7196673744
C        2.2247493325   -0.7562099141   -0.5408781989
C        0.3648663432   -1.8375405465   -1.5063029139
C        1.4884616942   -1.4034335867    0.6223556556
C        0.7137048781   -2.4807999890   -0.1533395495
H        6.5409872280    2.3582702210    0.2465131124
H        4.5346851162    3.2788822587   -0.8927437204
H        6.5489900371   -0.0025608892    1.0183629948
H        2.5478905791    1.8418761109   -1.2592788276
H        4.5644522519   -1.4373617646    0.6453918767
H        1.9361766808   -0.6503397618   -2.6848858531
H        0.2117982069   -2.5836159743   -2.2923857482
H       -0.5136747909   -1.1904456047   -1.4141518338
H        0.8067628115   -0.6779740735    1.0776167640
H        2.1545769256   -1.8352246408    1.3755143736
H       -0.1570134612   -2.8673581039    0.3857141003
H        1.4015716522   -3.3109238122   -0.3471253070
23   

C        5.6786810672    1.7211883557    0.0745162255
C        4.4947029165    2.2798189760   -0.4159896552
C        5.7375602564    0.3528944552    0.3556524085
C        3.3731114612    1.4688605389   -0.6258677611
C        4.6136024807   -0.4545407381    0.1436547510
C        3.4231676683    0.0917078029   -0.3552662704
C        1.6764440047   -1.1360912023   -1.7350642104
C        2.2263393877   -0.7610091579   -0.5477672208
C        0.4322625645   -1.9406555053   -1.5172723652
C        1.4050403639   -1.2720187919    0.6261761707
C        0.6766146068   -2.4280292155   -0.0784031784
H        6.5479968282    2.3478067578    0.2389210534
H        4.4436068535    3.3409774247   -0.6315075488
H        6.6526717152   -0.0832228227    0.7396932787
H        2.4539732202    1.9044743027   -0.9998461003
H        4.6608225348   -1.5140354776    0.3664950412
H        2.1005964138   -0.9014035916   -2.7047071234
H        0.3268323964   -2.7702286251   -2.2234209321
H       -0.4431103800   -1.2842848127   -1.5619864234
H        0.7003248746   -0.4992139258    0.9492061814
H        2.0164461273   -1.6168566491    1.4658749908
H       -0.2343422416   -2.7496901678    0.4362327339
H        1.3679406115   -3.2762239467   -0.1276870678
23   

C        5.6882159299    1.7088274898    0.0661809808
C        4.4587913676    2.3004169569   -0.2393963168
C        5.7850284526    0.3174739753    0.1655121584
C        3.3289180960    1.4996500358   -0.4439795983
C        4.6526506559   -0.4796638546   -0.0406414739
C        3.4149758020    0.1014554919   -0.3468766136
C        1.7771296455   -1.2719756748   -1.7288611507
C        2.2139742305   -0.7465139839   -0.5519983296
C        0.5176137792   -2.0564397293   -1.5272347619
C        1.2995216499   -1.1329829327    0.6001637133
C        0.6369836899   -2.3712018177   -0.0256486425
H        6.5640542902    2.3274097340    0.2263404709
H        4.3794686663    3.3787527311   -0.3169790813
H        6.7363352050   -0.1446850777    0.4032872514
H        2.3759573281    1.9590611013   -0.6789797690
H        4.7289410636   -1.5577902288    0.0387039568
H        2.2934122169   -1.1601435427   -2.6755129785
H        0.4725914349   -2.9632335147   -2.1384895843
H       -0.3497931498   -1.4173816236   -1.7230519841
H        0.5668832147   -0.3384855446    0.7737218027
H        1.8410236242   -1.3715093140    1.5209564684
H       -0.3146732222   -2.6417288567    0.4426717108
H        1.3312609461   -3.2113097699    0.0835371091
23   

C        5.6974964472    1.6997656205    0.0678970373
C        4.4409399603    2.3021643427   -0.0452180605
C        5.8121693166    0.3088708191   -0.0166976502
C        3.3015368006    1.5124576115   -0.2394701665
C        4.6702671904   -0.4774284247   -0.2115856479
C        3.4037715480    0.1132658971   -0.3173723764
C        1.8794542485   -1.3990619984   -1.6766119636
C        2.1991330858   -0.7226865353   -0.5393253872
C        0.6037194019   -2.1632799331   -1.5022776007
C        1.1828758464   -0.9847798282    0.5616839568
C        0.5829167160   -2.2967019806    0.0303520651
H        6.5809261226    2.3097708156    0.2190114247
H        4.3483041492    3.3804796979    0.0162051674
H        6.7851655022   -0.1614422146    0.0681263997
H        2.3288073636    1.9812219202   -0.3311433102
H        4.7618701566   -1.5551964413   -0.2786489029
H        2.4917022622   -1.4110395918   -2.5711524607
H        0.6128854381   -3.1364655062   -2.0030357452
H       -0.2394697419   -1.5585140687   -1.8521966970
H        0.4349061588   -0.1857350326    0.5724783879
H        1.6378414477   -1.1053822896    1.5498680212
H       -0.4080605402   -2.5208101037    0.4376513713
H        1.2647477028   -3.1095113126    0.3027059243
23   

C        5.6962327012    1.6879640877    0.0832880295
C        4.4270544678    2.2708860823    0.1408031255
C        5.8216203849    0.3187262700   -0.1691282488
C        3.2858875338    1.4831937795   -0.0508619532
C        4.6781502847   -0.4661202767   -0.3605631621
C        3.3980327187    0.1026655345   -0.2941189738
C        1.9617451144   -1.5216555946   -1.6081929304
C        2.1942385425   -0.7234049831   -0.5290747895
C        0.6626672655   -2.2520468996   -1.4648063457
C        1.0815261581   -0.8594184213    0.4997002853
C        0.5097503300   -2.2183639246    0.0652083076
H        6.5810677023    2.2967262219    0.2311650340
H        4.3258543140    3.3332849243    0.3310320089
H        6.8044847079   -0.1359097767   -0.2180368676
H        2.3041400139    1.9403614740   -0.0135773930
H        4.7809035980   -1.5265815281   -0.5585635237
H        2.6491009308   -1.6413063972   -2.4378491728
H        0.6978058098   -3.2738380569   -1.8555085288
H       -0.1370185409   -1.6820014347   -1.9492727487
H        0.3466364911   -0.0607923252    0.3576156508
H        1.4467034431   -0.8728042442    1.5314704314
H       -0.5155410923   -2.3910037150    0.4074304935
H        1.1539648199   -3.0002300632    0.4816895825
23   

C        5.6998642411    1.6832697960    0.0959290159
C        4.4271317969    2.2239246685    0.2976502376
C        5.8330821755    0.3509418095   -0.3044703218
C        3.2903226880    1.4312886120    0.1007393514
C        4.6942988471   -0.4394510065   -0.5007597794
C        3.4092259711    0.0860422064   -0.2939578817
C        2.0303974188   -1.6369331387   -1.5399148134
C        2.2093248496   -0.7377691223   -0.5305899238
C        0.7053149973   -2.3237809670   -1.4210441664
C        1.0170345369   -0.7455788117    0.4153739512
C        0.4445513862   -2.1319632499    0.0817969845
H        6.5811635816    2.2962714146    0.2473674604
H        4.3194025403    3.2582448959    0.6037537173
H        6.8187543104   -0.0711046659   -0.4639620014
H        2.3071776574    1.8613278533    0.2506040263
H        4.8084566136   -1.4714030879   -0.8105025287
H        2.7672512207   -1.8535606108   -2.3047152292
H        0.7411892294   -3.3804751465   -1.7039883746
H       -0.0422487370   -1.7905816485   -2.0177143908
H        0.3153245818    0.0458340164    0.1335466521
H        1.3009069743   -0.6568043273    1.4687825528
H       -0.6065256116   -2.2507049881    0.3633472896
H        1.0382027480   -2.8776959039    0.6216006294
23   

C        5.6957665487    1.6864314011    0.1002357163
C        4.4269911581    2.1640931484    0.4370853684
C        5.8339137647    0.4048955330   -0.4384821382
C        3.2988524127    1.3603006975    0.2353977367
C        4.7042806795   -0.3972691970   -0.6394915308
C        3.4209505649    0.0658961469   -0.3031922162
C        2.0803932523   -1.7493921287   -1.4652918029
C        2.2279696074   -0.7665864348   -0.5296377703
C        0.7308219239   -2.3906641655   -1.3693313352
C        0.9755226386   -0.6562886704    0.3280681760
C        0.3826399913   -2.0529660644    0.0884759855
H        6.5700282420    2.3085061445    0.2554382576
H        4.3151401487    3.1590580002    0.8526180711
H        6.8168949925    0.0306149302   -0.7007428851
H        2.3217757492    1.7500388193    0.4939964310
H        4.8304774494   -1.3902621790   -1.0529903142
H        2.8474260145   -2.0512714082   -2.1686096021
H        0.7531218874   -3.4698141374   -1.5507230621
H        0.0378651985   -1.8984516775   -2.0597647325
H        0.3183757110    0.1215125966   -0.0738068683
H        1.1898981007   -0.4765285458    1.3863272444
H       -0.6871875072   -2.1185326477    0.3105138021
H        0.9182955114   -2.7589581002    0.7323840218
23   

C        5.6947102563    1.6944869577    0.0996287857
C        4.4420016466    2.0987751447    0.5654490932
C        5.8244024483    0.4753480589   -0.5686758669
C        3.3210436618    1.2850893368    0.3627961628
C        4.7026071264   -0.3373340343   -0.7707952019
C        3.4325919138    0.0533148632   -0.3090337852
C        2.1246086159   -1.8513145605   -1.3733480068
C        2.2461631201   -0.7920407375   -0.5187855407
C        0.7528735793   -2.4478935675   -1.3107628107
C        0.9427880510   -0.5740788432    0.2370283480
C        0.3210448207   -1.9698221472    0.0825945444
H        6.5629337847    2.3246646914    0.2560639407
H        4.3365644749    3.0453532485    1.0831657124
H        6.7954047216    0.1569146708   -0.9304493925
H        2.3615434958    1.6294491243    0.7277217935
H        4.8315036064   -1.2808310210   -1.2853493613
H        2.9166706510   -2.2348103362   -2.0047712798
H        0.7540089226   -3.5393805902   -1.3922889877
H        0.1215463162   -2.0044921114   -2.0879109708
H        0.3394361787    0.1824514812   -0.2749113930
H        1.0873835521   -0.3116176238    1.2897346046
H       -0.7626259741   -1.9862946010    0.2359537895
H        0.7898097439   -2.6283934819    0.8218838426
23   

C        5.6966325936    1.7040460518    0.0909192214
C        4.4764698815    2.0273538016    0.6868259128
C        5.7967987029    0.5600859957   -0.7024796461
C        3.3582652788    1.2080694924    0.4905651557
C        4.6784587462   -0.2586393235   -0.8984138149
C        3.4395211056    0.0501590050   -0.3058373391
C        2.1688977954   -1.9405405398   -1.2601453901
C        2.2580617444   -0.8081433185   -0.4991277687
C        0.7812407467   -2.5016045131   -1.2473932202
C        0.9101780687   -0.4979625792    0.1382523226
C        0.2601897966   -1.8871802873    0.0578785631
H        6.5621828743    2.3389146227    0.2431765746
H        4.3939037584    2.9159592306    1.3022531334
H        6.7422755397    0.3049226712   -1.1673397793
H        2.4306475784    1.4995917532    0.9649254799
H        4.7885357939   -1.1392111432   -1.5174058814
H        2.9906268255   -2.3993086319   -1.7956771701
H        0.7592967074   -3.5957575163   -1.2278009354
H        0.2213518278   -2.1206792927   -2.1079128824
H        0.3672642927    0.2268512139   -0.4768344561
H        0.9769297719   -0.1591160890    1.1762647350
H       -0.8319634151   -1.8650190563    0.1275647904
H        0.6515390248   -2.4866162939    0.8870629528
23   

C        5.7164753592    1.7159927518    0.0826737813
C        4.5492212348    1.9500213595    0.8117171348
C        5.7607642171    0.6626704307   -0.8320884002
C        3.4279244986    1.1318844830    0.6278450680
C        4.6395813228   -0.1549100457   -1.0154468521
C        3.4543747442    0.0641956737   -0.2890751920
C        2.2240235296   -1.9976766308   -1.1291212062
C        2.2742189628   -0.7995502354   -0.4736592417
C        0.8304800754   -2.5419232301   -1.1694244121
C        0.8901452267   -0.4153842120    0.0318861634
C        0.2218100524   -1.7987879348    0.0266856533
H        6.5842538874    2.3499111481    0.2259458431
H        4.5108437013    2.7672188380    1.5229926064
H        6.6641600475    0.4782351415   -1.4021606470
H        2.5469704710    1.3496164921    1.2156749959
H        4.6994109618   -0.9602104193   -1.7361271623
H        3.0796865193   -2.5121321758   -1.5490580576
H        0.7888462562   -3.6287491144   -1.0463335931
H        0.3440995064   -2.2412927305   -2.1032532389
H        0.4087108050    0.2570174977   -0.6853690367
H        0.8763091740    0.0131644458    1.0372498946
H       -0.8718250460   -1.7570932833    0.0070813896
H        0.5349164619   -2.3223571117    0.9365120791
23   

C        5.7118975697    1.7121992527    0.0766810582
C        4.6054937667    1.8531696999    0.9172293139
C        5.6921554089    0.7545580560   -0.9395783611
C        3.4807989648    1.0381480536    0.7413303565
C        4.5669263540   -0.0595837784   -1.1139883112
C        3.4431219064    0.0702795317   -0.2797042664
C        2.2558960172   -2.0535591165   -0.9952804226
C        2.2651530760   -0.7983991961   -0.4587912149
C        0.8650233184   -2.6009493573   -1.0760825753
C        0.8517030630   -0.3605040485   -0.1013692837
C        0.1783751595   -1.7384701187   -0.0069848962
H        6.5830189903    2.3429596313    0.2134238096
H        4.6184488001    2.5928710384    1.7095941090
H        6.5484436238    0.6420619691   -1.5947341008
H        2.6448113024    1.1632980934    1.4166938594
H        4.5669122435   -0.7921815850   -1.9117030841
H        3.1419069299   -2.6003272052   -1.2958675505
H        0.8086455606   -3.6693710977   -0.8451192022
H        0.4462687594   -2.3988291875   -2.0674432615
H        0.4301375927    0.2264813249   -0.9236016894
H        0.7707172965    0.1855117860    0.8419770096
H       -0.9110120501   -1.7013394538   -0.1070757493
H        0.4251528390   -2.1631944737    0.9720986846
23   

C        5.7102574229    1.7097852206    0.0786289406
C        4.6683544007    1.7506770621    1.0088847339
C        5.6256653483    0.8521296576   -1.0213792702
C        3.5426793145    0.9364979462    0.8367961046
C        4.4989254075    0.0387576792   -1.1909843610
C        3.4396109017    0.0748100277   -0.2706976421
C        2.2809289194   -2.1018315568   -0.8545087377
C        2.2654581360   -0.8032193318   -0.4396165551
C        0.8917700058   -2.6474735817   -0.9747092072
C        0.8376129369   -0.3191486278   -0.2340058953
C        0.1431671036   -1.6772055433   -0.0466898966
H        6.5827104221    2.3395330169    0.2114449238
H        4.7329038014    2.4104372019    1.8666074641
H        6.4329893854    0.8159740471   -1.7438962693
H        2.7488588911    0.9691193702    1.5728863869
H        4.4422656343   -0.6220426131   -2.0477995253
H        3.1830127319   -2.6725606041   -1.0427757881
H        0.8071916856   -3.6868331055   -0.6421493000
H        0.5435358879   -2.5445856717   -2.0077517184
H        0.4843390512    0.1810870749   -1.1413525500
H        0.7095817956    0.3287860276    0.6378476021
H       -0.9363403033   -1.6452602504   -0.2250135745
H        0.3177813628   -2.0013019817    0.9849793189
23   

C        5.7080474862    1.7093105440    0.0828040933
C        4.7419107833    1.6383706752    1.0905448461
C        5.5476851225    0.9624674047   -1.0880245462
C        3.6157112069    0.8238209809    0.9242837420
C        4.4202852402    0.1484860231   -1.2510662405
C        3.4370423665    0.0768424907   -0.2538317657
C        2.2890256466   -2.1396113600   -0.7003019845
C        2.2632693699   -0.8078743272   -0.4153209700
C        0.9027049095   -2.6802911339   -0.8684984662
C        0.8345858116   -0.2877179694   -0.3678701500
C        0.1042845084   -1.6134470972   -0.1003265396
H        6.5809829951    2.3394870618    0.2102950583
H        4.8656468818    2.2114952474    2.0023231601
H        6.2969203593    1.0122180836   -1.8698689142
H        2.8743660742    0.7647151794    1.7123545558
H        4.3019284986   -0.4307722648   -2.1592567568
H        3.1949558233   -2.7309215010   -0.7695476778
H        0.7757434038   -3.6799750252   -0.4412949842
H        0.6330301775   -2.6786244893   -1.9297811736
H        0.5589167842    0.1246730937   -1.3436824094
H        0.6635198076    0.4461257916    0.4256498125
H       -0.9583379724   -1.5884588919   -0.3617875455
H        0.1961433592   -1.8344727617    0.9685709740
23   

C        5.7069292013    1.7081677482    0.0888761304
C        4.8291864016    1.5055780824    1.1580362427
C        5.4612526794    1.0878989436   -1.1398788216
C        3.7061961241    0.6858448357    0.9954004053
C        4.3372213679    0.2683406362   -1.2984546940
C        3.4445102499    0.0644123029   -0.2375125344
C        2.2777259545   -2.1741669955   -0.5293904336
C        2.2654146535   -0.8187333144   -0.4041561714
C        0.8937089890   -2.7039255617   -0.7451379250
C        0.8530743617   -0.2675306500   -0.5254935841
C        0.0687383365   -1.5404393313   -0.1680211087
H        6.5769804132    2.3430026000    0.2129139826
H        5.0182862543    1.9815798729    2.1134334324
H        6.1412379509    1.2405665448   -1.9701939831
H        3.0293937032    0.5258011564    1.8264956754
H        4.1504408247   -0.2133264690   -2.2511162469
H        3.1703036126   -2.7850116583   -0.4560369309
H        0.7062655433   -3.6454592449   -0.2194574531
H        0.7064481660   -2.8187648307   -1.8179077580
H        0.6621123840    0.0370323933   -1.5594068719
H        0.6478902636    0.5549317117    0.1668146422
H       -0.9699587002   -1.5259085380   -0.5130637578
H        0.0730876683   -1.6388112400    0.9229017417
23   

C        5.7076549860    1.7143763400    0.0998449934
C        4.9332281734    1.3507959797    1.2056500293
C        5.3667724891    1.2452108582   -1.1724370904
C        3.8195270993    0.5196815908    1.0366584415
C        4.2524011871    0.4136894663   -1.3367531897
C        3.4681396699    0.0426152271   -0.2364538470
C        2.2543581735   -2.1909835871   -0.3551128643
C        2.2821843361   -0.8317888254   -0.4169077549
C        0.8711597964   -2.7076317202   -0.6045377480
C        0.9008259448   -0.2623437947   -0.7007623089
C        0.0502639026   -1.4577798739   -0.2411738846
H        6.5699809198    2.3587581798    0.2285087322
H        5.1939934288    1.7125110788    2.1937189492
H        5.9644415241    1.5255284806   -2.0322791087
H        3.2189089768    0.2392798929    1.8940301177
H        3.9891362806    0.0520731350   -2.3238506341
H        3.1147822088   -2.8085090889   -0.1237219557
H        0.6138935128   -3.5685486008    0.0204250490
H        0.7556197977   -2.9542837313   -1.6651670426
H        0.7866320598   -0.0864628666   -1.7750667124
H        0.6825121501    0.6468423445   -0.1318153808
H       -0.9614895923   -1.4609764912   -0.6589079325
H       -0.0228623358   -1.4141755237    0.8508319635
23   

C        5.6952040070    1.7204547162    0.1125924829
C        5.0283489790    1.1930279345    1.2223411556
C        5.2568757535    1.4042073978   -1.1768126662
C        3.9263489223    0.3491941337    1.0401660595
C        4.1545989620    0.5593483371   -1.3541526784
C        3.4830149147    0.0170012399   -0.2500041438
C        2.2156160656   -2.1860269928   -0.1936367121
C        2.2960650298   -0.8501953583   -0.4424731742
C        0.8358371793   -2.6976550343   -0.4700877178
C        0.9529046346   -0.2895329777   -0.8851059800
C        0.0360891273   -1.3908395836   -0.3282699341
H        6.5481153510    2.3751554856    0.2515282615
H        5.3622246857    1.4391090281    2.2238828314
H        5.7687821372    1.8145041664   -2.0397867128
H        3.4059325642   -0.0532428742    1.9013626965
H        3.8141894509    0.3198663988   -2.3547198986
H        3.0328489601   -2.7845860276    0.1924129391
H        0.5096484496   -3.4625900527    0.2415370009
H        0.7818587039   -3.0781357886   -1.4955008660
H        0.9082700159   -0.2555166382   -1.9782181654
H        0.7318447749    0.6927077025   -0.4556837572
H       -0.9475808467   -1.4244528992   -0.8072415550
H       -0.1023858325   -1.2001111966    0.7414032027
23   

C        5.6866611230    1.7274124722    0.1228401181
C        5.1242539242    1.0570957833    1.2129133592
C        5.1474465951    1.5513403596   -1.1548353203
C        4.0265358129    0.2095543460    1.0225660558
C        4.0498157894    0.7024179619   -1.3411669739
C        3.4840031792    0.0134044768   -0.2588623392
C        2.1737955754   -2.1484942650   -0.0572688344
C        2.3008388837   -0.8513616009   -0.4529803963
C        0.8051895424   -2.6710302826   -0.3663795193
C        0.9990084558   -0.3301332469   -1.0435278310
C        0.0254192639   -1.3465281499   -0.4257404295
H        6.5362750644    2.3849378281    0.2684772041
H        5.5353865111    1.1958196050    2.2063114065
H        5.5775855064    2.0736475267   -2.0017660356
H        3.5867035741   -0.3003299230    1.8716160222
H        3.6327350055    0.5734243819   -2.3329511151
H        2.9484377908   -2.7092203930    0.4532262749
H        0.4179764689   -3.3457923991    0.4034992083
H        0.8102508329   -3.1647594586   -1.3437966715
H        1.0237988821   -0.4230812959   -2.1338473809
H        0.7707577007    0.6981537288   -0.7457978446
H       -0.9263700196   -1.4215213994   -0.9611018813
H       -0.1762493979   -1.0322731441    0.6040028732
23   

C        5.6791240943    1.7308084138    0.1299979295
C        5.2140490049    0.9462453071    1.1886838700
C        5.0406800658    1.6704297858   -1.1116519954
C        4.1142715815    0.1004074410    1.0029612280
C        3.9412294118    0.8231543370   -1.2942997153
C        3.4691876097    0.0196370864   -0.2447253227
C        2.1207455240   -2.1023965356    0.0732743109
C        2.2924859941   -0.8486042713   -0.4338548388
C        0.7717342744   -2.6464407415   -0.2815845779
C        1.0423499095   -0.3878491906   -1.1694172031
C        0.0143095932   -1.3308727561   -0.5251178858
H        6.5305299051    2.3867298647    0.2723722330
H        5.7025732495    0.9947588372    2.1551749951
H        5.3959732420    2.2807011902   -1.9341211024
H        3.7533687555   -0.4957215052    1.8325859485
H        3.4525116240    0.7852774772   -2.2605724051
H        2.8495122996   -2.6196726660    0.6865730303
H        0.3227265116   -3.2408439477    0.5203101221
H        0.8405763391   -3.2332557979   -1.2035699314
H        1.1451838753   -0.5933742370   -2.2396242616
H        0.8031050764    0.6662390202   -0.9967270662
H       -0.8983872460   -1.4532100792   -1.1168517753
H       -0.2548404538   -0.9148144765    0.4518072253
23   

C        5.7053891585    1.7361096295    0.0561662564
C        5.0121522115    1.7604498079   -1.1560066373
C        5.2388711031    0.9408606879    1.1052956060
C        3.8531983778    0.9920259600   -1.3164087780
C        4.0793388912    0.1735472443    0.9425378544
C        3.3636531262    0.1897129285   -0.2672796349
C        1.1060795764   -0.3840157989   -1.2742334167
C        2.1527460967   -0.6308468774   -0.4338707671
C        0.0716523729   -1.4625526906   -1.1820704175
C        1.9406126267   -1.9410672215    0.3108802689
C        0.9369047827   -2.6106624279   -0.6399227032
H        6.6031905017    2.3307467880    0.1816854131
H        5.3730965719    2.3727355809   -1.9745063622
H        5.7748365897    0.9177992271    2.0472838360
H        3.3341622235    1.0143162556   -2.2667159964
H        3.7316741715   -0.4342154172    1.7690959803
H        1.0415512364    0.4641908995   -1.9454584413
H       -0.3830473689   -1.7065188166   -2.1473150289
H       -0.6965281108   -1.1767848350   -0.4558554086
H        1.4836556365   -1.7435146097    1.2858074057
H        2.8569183095   -2.5294583225    0.4220964533
H        0.3580001707   -3.4128203684   -0.1713699987
H        1.5006435995   -3.0300590980   -1.4803289037
23   

C        5.7041759321    1.7435234976    0.0606056064
C        4.9430441102    1.8737049096   -1.1018906404
C        5.3132040209    0.8334916349    1.0438346055
C        3.7936892227    1.0947467247   -1.2794182368
C        4.1632556556    0.0556860735    0.8643857923
C        3.3793782981    0.1687438242   -0.3003233518
C        1.1697806968   -0.4687914387   -1.3866713454
C        2.1709597129   -0.6530664534   -0.4754842674
C        0.1026816394   -1.5088867746   -1.2416237125
C        1.8821376580   -1.8757538466    0.3841812108
C        0.9060430233   -2.6149164276   -0.5429369331
H        6.5945050333    2.3463962467    0.1993764144
H        5.2429776305    2.5781404695   -1.8693077953
H        5.8999775720    0.7298258343    1.9494336503
H        3.2258674895    1.2109177176   -2.1936032808
H        3.8822738508   -0.6349087126    1.6496144627
H        1.1487773367    0.3117067146   -2.1373735466
H       -0.3097898402   -1.8390400935   -2.2001920135
H       -0.6926398548   -1.1334926957   -0.5891760130
H        1.3862580269   -1.5687362626    1.3106195855
H        2.7703796846   -2.4785408704    0.5978612715
H        0.2820790370   -3.3504930454   -0.0255089934
H        1.4969758736   -3.1318752089   -1.3068405696
23   

C        5.6942940800    1.7499713618    0.0641458031
C        4.8542906037    1.9846063308   -1.0241078391
C        5.3886118355    0.7274360447    0.9619915464
C        3.7135819957    1.1960431672   -1.2138379133
C        4.2471289908   -0.0599003669    0.7702995157
C        3.3840991549    0.1506362763   -0.3256557798
C        1.2336871058   -0.5614678577   -1.4899334465
C        2.1803592564   -0.6780998488   -0.5108310367
C        0.1310736695   -1.5570690789   -1.3065559336
C        1.8152727150   -1.8086268234    0.4413892663
C        0.8611418493   -2.6071632299   -0.4592346124
H        6.5781477116    2.3600061814    0.2126661924
H        5.0848189925    2.7796088238   -1.7240736272
H        6.0354461599    0.5430832252    1.8121711433
H        3.0827378834    1.4058819460   -2.0675624458
H        4.0439014492   -0.8353317482    1.4970274645
H        1.2700727431    0.1423776605   -2.3120551817
H       -0.2374118266   -1.9702473617   -2.2507704970
H       -0.6876968071   -1.1005331320   -0.7406488427
H        1.2888401350   -1.4043417991    1.3119321926
H        2.6674689532   -2.4219047424    0.7488387828
H        0.1882578109   -3.2700946624    0.0938464804
H        1.4719903149   -3.2143113366   -1.1361079056
