28   
Generated by ForceBalance from scan.xyz: Frame 1 of 24
C        7.7369430059   -1.3576399215   -0.2342676475
C       -2.6317751462   -2.4094917014    0.3368196629
C        6.8722105150   -2.4521315935   -0.1451339520
C        7.1948654961   -0.0733964954   -0.3500628783
C       -2.3841146797   -1.0621571157    0.0544673261
C       -1.5591097871   -3.3055360610    0.3579021328
C        5.4841993475   -2.2900089589   -0.1681915327
C        5.8124752678    0.1063807010   -0.3771764737
C       -1.0843551966   -0.6238531101   -0.1966916618
C       -0.2509708390   -2.8853759261    0.1021283669
C        4.9455072582   -0.9977831147   -0.2873549540
C       -0.0080954450   -1.5290363565   -0.1724705691
C        2.5053111620   -1.6267979601   -0.2660761171
N        3.5601402029   -0.7250845379   -0.3238536887
N        1.2747806513   -1.0051106074   -0.4501655980
O        2.6413887206   -2.8308044686   -0.0780060080
H        8.8135969784   -1.5009735499   -0.2129905145
H       -3.6430480039   -2.7536566110    0.5345203013
H        7.2788274601   -3.4560976704   -0.0529754015
H        7.8470363122    0.7932265861   -0.4204818111
H       -3.2021304037   -0.3468512660    0.0317838788
H       -1.7370889088   -4.3562794745    0.5724248053
H        4.8228565340   -3.1414009134   -0.0916750204
H        5.4015113031    1.1107749933   -0.4698672652
H       -0.9021849030    0.4284556142   -0.4106775371
H        0.5722782179   -3.5857775426    0.1140749134
H        3.3326134078    0.2575923197   -0.3971402052
H        1.2802062184   -0.0108344387   -0.6364983608
28   
Generated by ForceBalance from scan.xyz: Frame 2 of 24
C        7.7268763501   -1.3280009823   -0.1543432035
C       -2.5778057334   -2.3480232102    0.4876992230
C        6.8852068799   -2.4435241750   -0.1839933612
C        7.1606605162   -0.0494665769   -0.1903725635
C       -2.3295250133   -1.0294539560    0.0929073731
C       -1.5249489616   -3.2678098791    0.4829738523
C        5.4956978451   -2.3069182966   -0.2473499136
C        5.7763925668    0.1040681182   -0.2579137788
C       -1.0464844117   -0.6401100520   -0.2918470317
C       -0.2361703722   -2.8960766153    0.0907948720
C        4.9324810319   -1.0205730482   -0.2882765051
C        0.0105526678   -1.5669670442   -0.2907795018
C        2.5115923977   -1.7011317761   -0.4354495825
N        3.5424465137   -0.7754777091   -0.3589609948
N        1.2814484297   -1.1013297501   -0.7064691177
O        2.6580192350   -2.9081110052   -0.2794070594
H        8.8049734677   -1.4510642264   -0.1021007545
H       -3.5757685354   -2.6531066309    0.7896561760
H        7.3110404855   -3.4432704252   -0.1535637998
H        7.7951711347    0.8326757525   -0.1676009447
H       -3.1334240676   -0.2979577613    0.0868672674
H       -1.7047181251   -4.2976300890    0.7812109715
H        4.8512527486   -3.1746322077   -0.2585612110
H        5.3461009360    1.1040892176   -0.2893033361
H       -0.8628291576    0.3906211150   -0.5919950090
H        0.5709985251   -3.6156342275    0.0752285696
H        3.2907915441    0.2039693432   -0.3618459990
H        1.2981152667   -0.1105363598   -0.9128255783
28   
Generated by ForceBalance from scan.xyz: Frame 3 of 24
C        7.6752335698   -1.2856647956   -0.0511070045
C       -2.4952772146   -2.2507457295    0.6589534470
C        6.8734648339   -2.4188230235   -0.2152900638
C        7.0707804853   -0.0247583133   -0.0152946070
C       -2.2573208542   -0.9681450963    0.1550342504
C       -1.4687495863   -3.1993708250    0.6156533855
C        5.4853372897   -2.3167647778   -0.3421652238
C        5.6876150551    0.0946981080   -0.1460601758
C       -1.0082256131   -0.6401368972   -0.3738188033
C       -0.2166512181   -2.8899449461    0.0781635599
C        4.8846426902   -1.0475259485   -0.3115841432
C        0.0221530214   -1.5947508423   -0.4087598896
C        2.5000256151   -1.7831497449   -0.6492144682
N        3.4917162356   -0.8387132335   -0.4388041996
N        1.2648337165   -1.2023657740   -0.9702356100
O        2.6660019759   -2.9927150725   -0.5484372383
H        8.7525815527   -1.3820601647    0.0498574430
H       -3.4661970293   -2.5073071753    1.0732667582
H        7.3297478291   -3.4051329934   -0.2411446148
H        7.6744625060    0.8699247120    0.1125498306
H       -3.0420723850   -0.2163662669    0.1758224185
H       -1.6426095308   -4.2028117097    0.9959779385
H        4.8703651772   -3.1987284041   -0.4545647311
H        5.2267651512    1.0811519718   -0.1215027011
H       -0.8310043734    0.3631915427   -0.7585448124
H        0.5679217842   -3.6337400292    0.0281352404
H        3.2035088198    0.1281939220   -0.3707127460
H        1.2987449133   -0.2144043590   -1.1920002390
28   
Generated by ForceBalance from scan.xyz: Frame 4 of 24
C        7.5941928428   -1.2526547396    0.0807763608
C       -2.3542514436   -2.1454750566    0.8432499790
C        6.8482436336   -2.3955393677   -0.2210798951
C        6.9415426188   -0.0187824550    0.1714643020
C       -2.1390531709   -0.8986939541    0.2480863375
C       -1.3627525704   -3.1270844954    0.7424251867
C        5.4680400652   -2.3293693241   -0.4313129107
C        5.5659955911    0.0651270358   -0.0417016189
C       -0.9455530961   -0.6355875413   -0.4270381183
C       -0.1697919545   -2.8830657404    0.0578201651
C        4.8196863563   -1.0867571204   -0.3451927988
C        0.0491714973   -1.6223934030   -0.5198776138
C        2.4895094129   -1.8715399837   -0.8895151462
N        3.4297444971   -0.9161388084   -0.5496185413
N        1.2396424730   -1.3120558686   -1.2331800576
O        2.6886587897   -3.0787571836   -0.8655848098
H        8.6658245605   -1.3210862688    0.2454212540
H       -3.2811690371   -2.3500947159    1.3715308813
H        7.3423955510   -3.3612279768   -0.2906906000
H        7.5018426984    0.8824044626    0.4061653507
H       -2.8979270785   -0.1230690491    0.3114282000
H       -1.5203310191   -4.1041944850    1.1920635021
H        4.8950371764   -3.2197639096   -0.6498109724
H        5.0672789717    1.0308515124    0.0259977146
H       -0.7853503210    0.3406355900   -0.8823789562
H        0.5849309247   -3.6541171855   -0.0380815402
H        3.0960558686    0.0297235546   -0.4203629738
H        1.2819287372   -0.3294491957   -1.4807671854
28   
Generated by ForceBalance from scan.xyz: Frame 5 of 24
C        7.3826526331   -1.6266966069    0.4431060382
C       -1.9129434854   -2.0954050803    1.0639964080
C        6.6785451106   -2.5389870232   -0.3479420639
C        6.7576656713   -0.4402167635    0.8424486145
C       -2.1853419129   -1.5093113262   -0.1768749304
C       -0.5817644406   -2.2672001496    1.4558668199
C        5.3632137952   -2.2868311346   -0.7475937378
C        5.4449671384   -0.1751139616    0.4544558212
C       -1.1447764306   -1.0983551562   -1.0115859718
C        0.4670502390   -1.8595456631    0.6278125024
C        4.7414528657   -1.0952464794   -0.3413639651
C        0.1906917313   -1.2710507737   -0.6160201158
C        2.4984934837   -1.4928118942   -1.3950735426
N        3.4158015563   -0.7570810929   -0.6965555475
N        1.2342232930   -0.7855390943   -1.4603771225
O        2.7036709538   -2.5610073958   -1.9509178513
H        8.4052011044   -1.8355552333    0.7446978643
H       -2.7238766938   -2.4168996079    1.7112795759
H        7.1554992359   -3.4629870734   -0.6644594861
H        7.2897941877    0.2803738235    1.4577657768
H       -3.2137638203   -1.3714035613   -0.5008898276
H       -0.3518487184   -2.7278446534    2.4132527423
H        4.8223204936   -2.9924033608   -1.3636874621
H        4.9613664494    0.7475716923    0.7699857673
H       -1.3660537564   -0.6401191803   -1.9734649350
H        1.4947252554   -2.0108928939    0.9458805032
H        3.0666153973    0.1336446780   -0.3644714208
H        0.9239395441   -0.8253341307   -2.4294331916
28   
Generated by ForceBalance from scan.xyz: Frame 6 of 24
C        7.2565985706   -1.6043805566    0.5489280923
C       -1.7590895960   -1.9490514546    1.1823652488
C        6.6628614474   -2.4662266356   -0.3777211027
C        6.5404262306   -0.4910661699    1.0019099968
C       -2.1074874136   -1.3879871165   -0.0516843525
C       -0.4116533766   -2.1936432448    1.4602988148
C        5.3714682208   -2.2352798543   -0.8597454315
C        5.2489972105   -0.2492729376    0.5348379398
C       -1.1241562709   -1.0691686581   -0.9884862262
C        0.5813249909   -1.8859869444    0.5252965927
C        4.6567599125   -1.1184930504   -0.3973285446
C        0.2294120992   -1.3194704850   -0.7095359894
C        2.5055733745   -1.5468522856   -1.6167997111
N        3.3472565398   -0.8077138860   -0.8273662180
N        1.2037759196   -0.9415637047   -1.6831993646
O        2.8137962912   -2.5365713566   -2.2656041835
H        8.2624831893   -1.7950400081    0.9123482077
H       -2.5256667702   -2.1951399214    1.9115349115
H        7.2103071773   -3.3330359292   -0.7388713927
H        6.9847156249    0.1907177615    1.7222138491
H       -3.1505277456   -1.1926961491   -0.2873221873
H       -0.1236721522   -2.6380195777    2.4096078240
H        4.9188995824   -2.9002459056   -1.5829207094
H        4.6948486548    0.6157019110    0.8948317187
H       -1.4011381809   -0.6212781190   -1.9404829730
H        1.6197457982   -2.1036241093    0.7554391520
H        2.9346755424    0.0348397489   -0.4458697021
H        0.8411957086   -1.1259120749   -2.6160823176
28   
Generated by ForceBalance from scan.xyz: Frame 7 of 24
C        7.1616646560   -1.5652651792    0.5976345806
C       -1.6425701018   -1.7785145830    1.2755133762
C        6.6756493271   -2.3682496675   -0.4383841865
C        6.3489838617   -0.5496127891    1.1127663710
C       -2.0263227957   -1.2261485071    0.0478434694
C       -0.3066083500   -2.1383683894    1.4695352554
C        5.3973586236   -2.1734819927   -0.9686225727
C        5.0683732939   -0.3468003433    0.5993679051
C       -1.0862952917   -1.0248033051   -0.9628221260
C        0.6412011779   -1.9564985837    0.4572651001
C        4.5840533317   -1.1562868771   -0.4427675660
C        0.2553354909   -1.3939284830   -0.7694334970
C        2.5117275919   -1.6354610057   -1.7739222686
N        3.2800970357   -0.8884652591   -0.9140937192
N        1.1741112359   -1.1537717570   -1.8356959203
O        2.9194098231   -2.5362375941   -2.4963776488
H        8.1591148760   -1.7258649111    0.9970361020
H       -2.3739671869   -1.9290986242    2.0643949535
H        7.2990743754   -3.1583437375   -0.8491158425
H        6.7087619164    0.0854534493    1.9180105986
H       -3.0612135849   -0.9406127313   -0.1223000544
H        0.0065581117   -2.5797827651    2.4121723269
H        5.0286833731   -2.7904636654   -1.7769151296
H        4.4383293949    0.4409884253    1.0085728009
H       -1.3847700378   -0.5751731866   -1.9071046787
H        1.6666464064   -2.2715293413    0.6213819594
H        2.7983806772   -0.1154107467   -0.4712271972
H        0.7828272738   -1.4523307216   -2.7255012407
28   
Generated by ForceBalance from scan.xyz: Frame 8 of 24
C        7.1374288203   -1.4760390418    0.6149116593
C       -1.5622815629   -1.6237031955    1.3020079721
C        6.7351783211   -2.2227900970   -0.4964313420
C        6.2355755737   -0.5758386002    1.1923932535
C       -1.9361143100   -1.0694844444    0.0723247532
C       -0.2606749715   -2.1058067739    1.4640198235
C        5.4552271978   -2.0858903138   -1.0404824333
C        4.9519164225   -0.4315873207    0.6668795924
C       -1.0166103222   -0.9821586928   -0.9734150430
C        0.6619604530   -2.0440407529    0.4150373841
C        4.5527743830   -1.1850647765   -0.4510608967
C        0.2891652315   -1.4741299300   -0.8130268125
C        2.5470327097   -1.7178064450   -1.8617967291
N        3.2397697054   -0.9819842972   -0.9269599859
N        1.1812241580   -1.3671244614   -1.9206677868
O        3.0454472324   -2.5129531499   -2.6509459906
H        8.1374614029   -1.5907382307    1.0236373535
H       -2.2759647760   -1.6818834231    2.1189084767
H        7.4276192105   -2.9229660037   -0.9568217827
H        6.5282702623    0.0150096823    2.0563833407
H       -2.9444129072   -0.6897196972   -0.0706612853
H        0.0412854000   -2.5517079091    2.4081616521
H        5.1523186470   -2.6581706854   -1.9068495889
H        4.2532844585    0.2665277432    1.1248856938
H       -1.3003990253   -0.5262104602   -1.9188547841
H        1.6566383835   -2.4564647752    0.5499461283
H        2.6937521342   -0.2945381719   -0.4220332416
H        0.7867253768   -1.7369605304   -2.7805875557
28   
Generated by ForceBalance from scan.xyz: Frame 9 of 24
C        7.1406508733   -1.4152356467    0.5419643664
C       -1.5656214741   -1.4884332827    1.3117594025
C        6.7738751830   -2.1114368573   -0.6136122704
C        6.1822827930   -0.6365550197    1.1994418382
C       -1.9008368734   -0.9364568398    0.0703115734
C       -0.3120910048   -2.0842235703    1.4789767415
C        5.4742318489   -2.0434858843   -1.1229654110
C        4.8794301592   -0.5625419750    0.7077358192
C       -0.9869128348   -0.9612017331   -0.9842771100
C        0.5998671889   -2.1374854523    0.4209048881
C        4.5145231305   -1.2648918201   -0.4547889063
C        0.2697585170   -1.5657299289   -0.8193222249
C        2.5349866197   -1.8270594500   -1.8926014717
N        3.1773702383   -1.1388016783   -0.8861661967
N        1.1536392669   -1.5872596222   -1.9341793584
O        3.0882628218   -2.5125294009   -2.7475048543
H        8.1561831666   -1.4753349983    0.9232418348
H       -2.2732505848   -1.4581821545    2.1354437392
H        7.5098754941   -2.7169893969   -1.1364908047
H        6.4458873043   -0.0860019519    2.0987730961
H       -2.8716644208   -0.4698866648   -0.0747176969
H       -0.0439854304   -2.5309388972    2.4328756468
H        5.1986442250   -2.5758662361   -2.0230799937
H        4.1378993134    0.0420812240    1.2272319600
H       -1.2352718467   -0.5062572805   -1.9398866541
H        1.5531670447   -2.6388482424    0.5545603454
H        2.5946447064   -0.5347384492   -0.3197347337
H        0.7613415076   -1.9740001817   -2.7861767496
28   
Generated by ForceBalance from scan.xyz: Frame 10 of 24
C        7.1797545982   -1.3429225354    0.4983241447
C       -1.5929750618   -1.3809800510    1.3025539293
C        6.8275979835   -1.9906075710   -0.6895147629
C        6.1885618327   -0.6816627552    1.2313393630
C       -1.8801876037   -0.8577279389    0.0369560283
C       -0.3777126887   -2.0401896884    1.5105831502
C        5.5106521384   -1.9897524262   -1.1572279337
C        4.8686424574   -0.6746497258    0.7815260011
C       -0.9542431243   -0.9707533727   -1.0012546534
C        0.5438404523   -2.1834842424    0.4695842137
C        4.5187939646   -1.3284696162   -0.4136795000
C        0.2658182015   -1.6354058443   -0.7947352539
C        2.5516086937   -1.8877998572   -1.8701110947
N        3.1609568717   -1.2805998255   -0.7927778123
N        1.1614667103   -1.7548396221   -1.8868231870
O        3.1395816135   -2.4434304842   -2.7945417574
H        8.2088020298   -1.3502602466    0.8466142377
H       -2.3091016069   -1.2813291743    2.1132866431
H        7.5885830903   -2.5052506294   -1.2708017694
H        6.4400638384   -0.1699177610    2.1566982975
H       -2.8217494034   -0.3446023167   -0.1401107605
H       -0.1496488267   -2.4681299054    2.4833067335
H        5.2459863627   -2.4839155040   -2.0819351232
H        4.1023584737   -0.1597508209    1.3587073033
H       -1.1645456420   -0.5381292831   -1.9761996212
H        1.4619528793   -2.7393980743    0.6315667380
H        2.5569058560   -0.7605212356   -0.1686180335
H        0.7732832068   -2.0694645009   -2.7682984994
28   
Generated by ForceBalance from scan.xyz: Frame 11 of 24
C        7.1854623542   -1.2515161835    0.4298418303
C       -1.6019311762   -1.2577141162    1.2940075091
C        6.8434846655   -1.8559523766   -0.7834385473
C        6.1716493305   -0.7147051809    1.2305189482
C       -1.8319186760   -0.7344797739    0.0167831661
C       -0.4509257396   -2.0169093189    1.5262146207
C        5.5147097406   -1.9336700414   -1.2096843713
C        4.8404217337   -0.7862850486    0.8216840900
C       -0.9095889889   -0.9462088945   -1.0093232691
C        0.4637846507   -2.2591967020    0.4977701281
C        4.5005894926   -1.3962657573   -0.3994045695
C        0.2473568511   -1.7084895431   -0.7777363053
C        2.5376856552   -1.9688521520   -1.8559717286
N        3.1298284898   -1.4353843997   -0.7311348461
N        1.1433859916   -1.9352149155   -1.8482091360
O        3.1406597058   -2.4121151070   -2.8306928546
H        8.2234182637   -1.1969065406    0.7460568385
H       -2.3143008238   -1.0821938948    2.0950922520
H        7.6213825233   -2.2743395199   -1.4172470009
H        6.4145120348   -0.2384066160    2.1768967666
H       -2.7241234596   -0.1455021216   -0.1787769936
H       -0.2712976071   -2.4470208814    2.5080460016
H        5.2572310882   -2.3941084678   -2.1535437675
H        4.0573201398   -0.3664985550    1.4510000319
H       -1.0737763133   -0.5147810255   -1.9936908102
H        1.3253147158   -2.8961257705    0.6738242044
H        2.5126171596   -0.9965653514   -0.0593459094
H        0.7557475457   -2.1339434272   -2.7622969443
28   
Generated by ForceBalance from scan.xyz: Frame 12 of 24
C        7.1788885418   -1.1464394911    0.3966705500
C       -1.5740936243   -1.1536884592    1.2840972569
C        6.8483499612   -1.7182904621   -0.8354129100
C        6.1513084387   -0.7182616895    1.2438933148
C       -1.7455508776   -0.6277244156   -0.0009255623
C       -0.4950599269   -2.0064612641    1.5384823829
C        5.5176765715   -1.8700280297   -1.2350257847
C        4.8182780576   -0.8635307563    0.8611942494
C       -0.8347073741   -0.9288781308   -1.0157173783
C        0.4037730103   -2.3373001421    0.5211351395
C        4.4900191873   -1.4406611728   -0.3788215686
C        0.2499783358   -1.7835354461   -0.7619483995
C        2.5380425004   -2.0307785983   -1.8396663724
N        3.1167171189   -1.5654282186   -0.6791083754
N        1.1429319577   -2.1112228158   -1.8102126769
O        3.1500483218   -2.3513249466   -2.8556312785
H        8.2183758524   -1.0339709950    0.6919117706
H       -2.2774516099   -0.9087558632    2.0748951587
H        7.6367651218   -2.0533356305   -1.5047710298
H        6.3847859878   -0.2688930109    2.2056846569
H       -2.5825354274    0.0325845130   -0.2120241579
H       -0.3635900871   -2.4390952440    2.5267986110
H        5.2689251855   -2.3051872052   -2.1930884027
H        4.0244140883   -0.5269013907    1.5259622932
H       -0.9533513394   -0.4969576826   -2.0065015927
H        1.2062951884   -3.0448700432    0.7082705949
H        2.4879000322   -1.2197784437    0.0349448964
H        0.7608024297   -2.1973907705   -2.7441860784
28   
Generated by ForceBalance from scan.xyz: Frame 13 of 24
C        7.1543240608   -1.4515428405   -1.0254422651
C       -1.6680670774   -1.6339216986   -1.2990006963
C        6.8949105044   -1.6981589180    0.3259721324
C        6.0873061104   -1.1479236050   -1.8776844060
C       -1.8220010047   -0.7757587868   -0.2047448468
C       -0.5272466311   -2.4383047858   -1.3840820707
C        5.5964245174   -1.6475344329    0.8404699953
C        4.7853121667   -1.0959969794   -1.3811420109
C       -0.8358583606   -0.7030162060    0.7808563065
C        0.4510082700   -2.3941855478   -0.3873387676
C        4.5283618816   -1.3458258016   -0.0208694285
C        0.3101674305   -1.5105838381    0.6974329971
C        2.6665303062   -1.4837261739    1.6575557859
N        3.1815355492   -1.2835164640    0.3944100911
N        1.2742149769   -1.4424629146    1.7302334895
O        3.3352631241   -1.6452116581    2.6756613135
H        8.1700329776   -1.4925368174   -1.4088124751
H       -2.4306227815   -1.6803771420   -2.0712608028
H        7.7153404132   -1.9320536332    0.9998166361
H        6.2655095661   -0.9508082523   -2.9316764635
H       -2.7051632964   -0.1474402747   -0.1247929914
H       -0.4054874326   -3.1245972841   -2.2180252233
H        5.4033368738   -1.8300475802    1.8886342635
H        3.9599056022   -0.8596829886   -2.0507180247
H       -0.9420747416   -0.0144711335    1.6155311680
H        1.3070249828   -3.0604997410   -0.4340925504
H        2.5185618070   -1.0426006865   -0.3316855612
H        0.9462920494   -1.3824134274    2.6862844466
28   
Generated by ForceBalance from scan.xyz: Frame 14 of 24
C        7.1466150896   -1.5411810163   -1.0748303387
C       -1.6453591662   -1.7388946406   -1.2698430277
C        6.8835251289   -1.8228806980    0.2689826165
C        6.0970948847   -1.1154254854   -1.8959770971
C       -1.8519087500   -0.8748694054   -0.1887004647
C       -0.4468746568   -2.4538907577   -1.3547890386
C        5.6002074715   -1.6872644336    0.8055698831
C        4.8092182457   -0.9792927389   -1.3788140448
C       -0.8639400959   -0.7087724876    0.7832871075
C        0.5363846289   -2.3162739290   -0.3710222034
C        4.5497498136   -1.2644907781   -0.0261298236
C        0.3386807837   -1.4293193751    0.7013461922
C        2.6891016738   -1.3972840631    1.6543745008
N        3.2193529878   -1.1065506633    0.4153035866
N        1.3017991324   -1.2551175452    1.7280213815
O        3.3432582159   -1.6888951771    2.6524768785
H        8.1507393799   -1.6485806053   -1.4755107803
H       -2.4102584313   -1.8571221859   -2.0321239779
H        7.6899251796   -2.1513436877    0.9198752478
H        6.2780605438   -0.8890947892   -2.9435602972
H       -2.7794111899   -0.3140097423   -0.1091755282
H       -0.2803122114   -3.1423439862   -2.1791748789
H        5.4052827581   -1.8981723984    1.8480855890
H        3.9976457439   -0.6500832075   -2.0256769986
H       -1.0115536549   -0.0148128284    1.6069443557
H        1.4426410938   -2.9115456655   -0.4233638889
H        2.5687876259   -0.7751302938   -0.2860067486
H        0.9753398344   -1.3329694410    2.6841671935
28   
Generated by ForceBalance from scan.xyz: Frame 15 of 24
C        7.1016004629   -1.6304238016   -1.0740925283
C       -1.6374158490   -1.8475388328   -1.2540725265
C        6.8159671916   -1.9701983095    0.2516417296
C        6.0947357131   -1.0642886777   -1.8632893734
C       -1.9003890204   -0.9719801531   -0.1945365673
C       -0.3908790517   -2.4757723219   -1.3282605013
C        5.5493857040   -1.7544419932    0.8014586382
C        4.8237407041   -0.8479136371   -1.3318320650
C       -0.9223693649   -0.7120188403    0.7665508582
C        0.5860104352   -2.2422384260   -0.3559172322
C        4.5404847393   -1.1914881386    0.0021868345
C        0.3277679369   -1.3479877066    0.6964481087
C        2.6573798780   -1.3191438664    1.6584160742
N        3.2311132851   -0.9411341771    0.4637830791
N        1.2788876892   -1.0671410952    1.7167220132
O        3.2682855140   -1.7441626241    2.6346928959
H        8.0923969595   -1.8009051255   -1.4858509095
H       -2.3951099882   -2.0403094677   -2.0082918990
H        7.5905334357   -2.4071428541    0.8768823365
H        6.2954130991   -0.7915434911   -2.8961177165
H       -2.8649608595   -0.4762391913   -0.1233007969
H       -0.1781884694   -3.1703970190   -2.1367228341
H        5.3363415256   -2.0098933262    1.8305143461
H        4.0438474310   -0.4109026173   -1.9532211471
H       -1.1152850313   -0.0092943802    1.5732809302
H        1.5336483299   -2.7690733415   -0.4052423178
H        2.6087739175   -0.5147501057   -0.2116215601
H        0.9432367560   -1.1985468253    2.6651350358
28   
Generated by ForceBalance from scan.xyz: Frame 16 of 24
C        7.0936803978   -1.7090091632   -1.1284438588
C       -1.6304200444   -1.9770709005   -1.2080724505
C        6.7682187307   -2.1133611089    0.1696678043
C        6.1490838156   -0.9988200000   -1.8771397400
C       -1.9342551154   -1.1003968639   -0.1601460844
C       -0.3363415568   -2.4945443415   -1.3103238246
C        5.5225594940   -1.8202793009    0.7313711607
C        4.8988811287   -0.7045239001   -1.3338058794
C       -0.9526475710   -0.7329776997    0.7607702345
C        0.6486036815   -2.1505701950   -0.3791949400
C        4.5757060990   -1.1129087620   -0.0278255237
C        0.3459230896   -1.2592939953    0.6628719921
C        2.6663004793   -1.2177233478    1.5964754037
N        3.2924246055   -0.7753792875    0.4529944830
N        1.3030905624   -0.8549750014    1.6398601758
O        3.2205211301   -1.7658247862    2.5429965708
H        8.0678050195   -1.9405446222   -1.5500287816
H       -2.3922558668   -2.2548716961   -1.9308940371
H        7.4945713672   -2.6625485403    0.7633971803
H        6.3820181328   -0.6744259475   -2.8879746455
H       -2.9357468030   -0.6886809281   -0.0660130845
H       -0.0885554002   -3.1872877350   -2.1103996122
H        5.2793444002   -2.1260899431    1.7398999764
H        4.1665440930   -0.1566286396   -1.9242735724
H       -1.1823007950   -0.0303469410    1.5581618723
H        1.6372983453   -2.5913821820   -0.4556555448
H        2.7092708000   -0.2517779927   -0.1884505662
H        0.9659321416   -0.9687055953    2.5913130451
28   
Generated by ForceBalance from scan.xyz: Frame 17 of 24
C        7.1365286850   -1.7634963016   -1.1268644189
C       -1.6855325219   -2.1143377368   -1.1046613691
C        6.7342243631   -2.2442514947    0.1226745212
C        6.2752065706   -0.9270421248   -1.8450762547
C       -1.9941381870   -1.2379426400   -0.0576156170
C       -0.3612872146   -2.5233674221   -1.2807986056
C        5.4926815415   -1.9036538414    0.6664432595
C        5.0299330034   -0.5829795580   -1.3200879870
C       -0.9910435111   -0.7681424745    0.7901275298
C        0.6496168809   -2.0718605562   -0.4262092525
C        4.6304512218   -1.0686798996   -0.0629549177
C        0.3390854136   -1.1858987647    0.6171996513
C        2.6613183149   -1.1497470272    1.4900504158
N        3.3581559508   -0.6740540948    0.4057587152
N        1.3240544332   -0.6633120663    1.5091464029
O        3.1308342383   -1.8165607688    2.4035166316
H        8.1064769201   -2.0337030579   -1.5348258228
H       -2.4660075987   -2.4747969746   -1.7686342557
H        7.3958965099   -2.8921289443    0.6919133582
H        6.5694466465   -0.5425691522   -2.8180876573
H       -3.0189051217   -0.9093584635    0.0953142658
H       -0.1064757148   -3.2130085630   -2.0813996278
H        5.1895071586   -2.2698776953    1.6380023835
H        4.3617789941    0.0631573702   -1.8867536531
H       -1.2310531312   -0.0700314906    1.5888420678
H        1.6657618342   -2.4269659250   -0.5644730001
H        2.8355831433   -0.0525200341   -0.1995455716
H        0.9986782282   -0.7021807678    2.4717757232
28   
Generated by ForceBalance from scan.xyz: Frame 18 of 24
C        7.2247283936   -1.8418427662   -1.0533637180
C       -1.8112876629   -2.2681073177   -1.0051503486
C        6.6949089780   -2.4111901797    0.1081433579
C        6.4739173337   -0.8877348678   -1.7487002481
C       -2.0867293504   -1.3872513276    0.0471321338
C       -0.4813860409   -2.5890136228   -1.2898002821
C        5.4339171924   -2.0440906014    0.5862272760
C        5.2119748975   -0.5141984545   -1.2878226630
C       -1.0503686873   -0.8302963293    0.7967649070
C        0.5649295316   -2.0434359195   -0.5398228771
C        4.6839148578   -1.0891975207   -0.1191822176
C        0.2854543936   -1.1572833650    0.5119684285
C        2.6160960444   -1.1444476900    1.3017972750
N        3.4008785109   -0.6598883863    0.2882806803
N        1.3152677507   -0.5334169460    1.2803164460
O        2.9724205895   -1.9199314476    2.1776458008
H        8.2076899379   -2.1346920063   -1.4115049330
H       -2.6196291899   -2.6993807624   -1.5886889874
H        7.2694566721   -3.1516628250    0.6586672152
H        6.8682497787   -0.4333808709   -2.6537504911
H       -3.1148945169   -1.1273585644    0.2856302709
H       -0.2487836975   -3.2788487918   -2.0970034541
H        5.0314862226   -2.4812727676    1.4900282592
H        4.6309066315    0.2249976200   -1.8362818304
H       -1.2719065111   -0.1364081514    1.6049130515
H        1.5891217801   -2.3229997528   -0.7668051754
H        2.9581397692    0.0480742488   -0.2847878370
H        1.0126103050   -0.4479180722    2.2481897887
28   
Generated by ForceBalance from scan.xyz: Frame 19 of 24
C        7.3515834078   -1.8072307327   -0.9356123315
C       -1.9635012729   -2.3602569781   -0.8297244424
C        6.7051382393   -2.4578186957    0.1191745922
C        6.6899424190   -0.7747096722   -1.6093497615
C       -2.1649350327   -1.4492541077    0.2128842187
C       -0.6573494216   -2.6465267065   -1.2385065257
C        5.4137892678   -2.0955164085    0.5124697020
C        5.4003749113   -0.4029060649   -1.2313189686
C       -1.0789047105   -0.8313624781    0.8350296218
C        0.4364894524   -2.0337282732   -0.6221472552
C        4.7553038779   -1.0599273596   -0.1697005497
C        0.2314733812   -1.1193727490    0.4227426722
C        2.5851890966   -1.1340939663    1.0883290777
N        3.4501748463   -0.6271890261    0.1580462359
N        1.3201118846   -0.4273933866    1.0331041924
O        2.8350942737   -2.0077838468    1.9045897438
H        8.3561628062   -2.0986447071   -1.2290957796
H       -2.8096192590   -2.8420733880   -1.3112584041
H        7.2096792559   -3.2605266785    0.6506977355
H        7.1759850799   -0.2572470423   -2.4321412761
H       -3.1728436053   -1.2173519502    0.5475679487
H       -0.4823347706   -3.3577999417   -2.0416958056
H        4.9187652932   -2.5984931938    1.3321776547
H        4.8892617069    0.3988676030   -1.7611171959
H       -1.2449542300   -0.1213008254    1.6427367026
H        1.4441138940   -2.2772604976   -0.9470671614
H        3.0721148375    0.1387686353   -0.3859925572
H        1.0707823251   -0.1927563154    1.9920483453
28   
Generated by ForceBalance from scan.xyz: Frame 20 of 24
C        7.5694416734   -1.3618724538   -0.7035839283
C       -2.3953349678   -2.3494582377   -0.5967609305
C        6.8534083271   -2.3699892099   -0.0518660242
C        6.9017858895   -0.1960130558   -1.0929919790
C       -2.1555136871   -0.9881832142   -0.3860468349
C       -1.3923376764   -3.2730041006   -0.2838914376
C        5.4880205399   -2.2365552238    0.2153820876
C        5.5410769001   -0.0444719716   -0.8282712165
C       -0.9269341197   -0.5579829087    0.1189356423
C       -0.1636257830   -2.8586454919    0.2356401897
C        4.8250975986   -1.0609918997   -0.1725351445
C        0.0786811638   -1.4888936031    0.4254727969
C        2.5384189781   -1.6454483431    0.7059248486
N        3.4487837193   -0.8284879569    0.0608214718
N        1.3060325908   -1.0028783431    0.9543156692
O        2.7462119161   -2.8137360020    1.0050816032
H        8.6296447025   -1.4823003646   -0.9076692723
H       -3.3497277276   -2.6848735125   -0.9926891193
H        7.3593961453   -3.2826151033    0.2525582800
H        7.4389505782    0.5999526140   -1.6019580161
H       -2.9226259016   -0.2542166837   -0.6191283215
H       -1.5683718557   -4.3352345285   -0.4336526615
H        4.9371359320   -3.0265044527    0.7066836672
H        5.0306705756    0.8688130911   -1.1304945943
H       -0.7478781069    0.5049744814    0.2741174432
H        0.6012946492   -3.5790404738    0.4987871216
H        3.0992175530    0.0462214890   -0.3071319760
H        1.3543208546    0.0094914192    0.9173264245
28   
Generated by ForceBalance from scan.xyz: Frame 21 of 24
C        7.6607357393   -1.3574276210   -0.5691120249
C       -2.5256644842   -2.3981329754   -0.3819286948
C        6.8808775929   -2.3921742360   -0.0447165413
C        7.0440221476   -0.1528338425   -0.9228978116
C       -2.2701464854   -1.0283561306   -0.2634255383
C       -1.4887539375   -3.3052803627   -0.1424524481
C        5.5018704461   -2.2479335400    0.1309443459
C        5.6700596769    0.0097628658   -0.7490552718
C       -0.9948027528   -0.5771156048    0.0793235318
C       -0.2101258836   -2.8680834536    0.2132626332
C        4.8897301661   -1.0336826993   -0.2206753182
C        0.0465629563   -1.4911528608    0.3123194505
C        2.5351326831   -1.6262086369    0.4485344946
N        3.5050933275   -0.7863323147   -0.0744516002
N        1.3167089590   -0.9682480000    0.6683288283
O        2.7052788052   -2.8170389555    0.6803509995
H        8.7310202887   -1.4869355265   -0.7028113669
H       -3.5170540030   -2.7516317629   -0.6509077341
H        7.3471788031   -3.3346873477    0.2307679565
H        7.6309383169    0.6645991200   -1.3334626711
H       -3.0619542263   -0.3053789078   -0.4417465084
H       -1.6746280308   -4.3733996204   -0.2222544141
H        4.9026763597   -3.0575363974    0.5236765226
H        5.1992246475    0.9527778756   -1.0231937074
H       -0.8053480891    0.4920147832    0.1633876163
H        0.5829961424   -3.5754103355    0.4177814579
H        3.2050405703    0.1253139079   -0.3929782598
H        1.3553773670    0.0422151428    0.6065411428
28   
Generated by ForceBalance from scan.xyz: Frame 22 of 24
C        7.7085124424   -1.3627255771   -0.4614325648
C       -2.6062119653   -2.4343827217   -0.1914463112
C        6.8815410009   -2.4176044188   -0.0651441494
C        7.1338969872   -0.1218324260   -0.7556704764
C       -2.3466947960   -1.0600682318   -0.1864952730
C       -1.5472196244   -3.3264516550    0.0017566401
C        5.4972571604   -2.2568454204    0.0410258440
C        5.7548578040    0.0555928749   -0.6504493239
C       -1.0463313420   -0.5914776432    0.0012934568
C       -0.2405619221   -2.8727334748    0.2010222559
C        4.9251929734   -1.0073748764   -0.2508563833
C        0.0166241642   -1.4919069751    0.1905428950
C        2.5229877270   -1.6017008678    0.2210086573
N        3.5399322297   -0.7407212526   -0.1665926138
N        1.3057135976   -0.9407606945    0.3876368689
O        2.6704922808   -2.8059768120    0.3958327147
H        8.7825839994   -1.5041819447   -0.5420286561
H       -3.6175807999   -2.8023889284   -0.3393559183
H        7.3143426241   -3.3882390917    0.1636199038
H        7.7575368655    0.7122975155   -1.0665027384
H       -3.1549428016   -0.3481957407   -0.3326698886
H       -1.7357692578   -4.3970622568    0.0066722235
H        4.8628828261   -3.0805392612    0.3367509546
H        5.3176676578    1.0267937144   -0.8780519024
H       -0.8537590691    0.4804764491   -0.0020504603
H        0.5721107810   -3.5672627295    0.3645739065
H        3.2790223936    0.2001743556   -0.4298224625
H        1.3288673297    0.0684361489    0.3129183201
28   
Generated by ForceBalance from scan.xyz: Frame 23 of 24
C        7.7375614974   -1.3767409887   -0.3605164683
C       -2.6402581975   -2.4620261979   -0.0234988667
C        6.8795540366   -2.4401478776   -0.0662071813
C        7.1910563848   -0.1132623092   -0.6084949489
C       -2.3901661997   -1.0882917443   -0.1057437360
C       -1.5608896104   -3.3409482842    0.1042048416
C        5.4935591498   -2.2673464776   -0.0157735440
C        5.8106151683    0.0768047180   -0.5600946319
C       -1.0815189137   -0.6084830001   -0.0647307404
C       -0.2436219834   -2.8763767579    0.1520993237
C        4.9499642779   -0.9955261377   -0.2630954218
C        0.0024014740   -1.4960703228    0.0609811033
C        2.5181351474   -1.5845843678    0.0349524001
N        3.5663653405   -0.7133112387   -0.2318451651
N        1.2949150847   -0.9261008141    0.1007482786
O        2.6538940886   -2.7926051019    0.1956945812
H        8.8126460526   -1.5283809867   -0.3974831595
H       -3.6585866462   -2.8390139248   -0.0561204750
H        7.2897269611   -3.4281807049    0.1270220119
H        7.8379931059    0.7288735352   -0.8400419810
H       -3.2133800347   -0.3854481240   -0.2041303400
H       -1.7400926603   -4.4109827129    0.1728751884
H        4.8370087643   -3.0968752251    0.2054229236
H        5.3960781370    1.0652841443   -0.7532947680
H       -0.8982647016    0.4630082317   -0.1325752218
H        0.5850764007   -3.5620532201    0.2592523691
H        3.3344178961    0.2496874260   -0.4358814015
H        1.3032107650    0.0806878347    0.0028044529
28   
Generated by ForceBalance from scan.xyz: Frame 24 of 24
C        7.7366975947   -1.3725497798   -0.2988718881
C       -2.6556933380   -2.4415946687    0.1653355274
C        6.8656614205   -2.4466994540   -0.0961506777
C        7.2027766870   -0.0945206538   -0.4942022633
C       -2.4099281825   -1.0752795253   -0.0060509855
C       -1.5721016539   -3.3224683121    0.2243515743
C        5.4792224643   -2.2703606328   -0.0850182383
C        5.8220445554    0.0989781445   -0.4857894073
C       -1.1020269990   -0.6048019814   -0.1154836514
C       -0.2549346076   -2.8677496593    0.1160569829
C        4.9480764390   -0.9844281160   -0.2815590265
C       -0.0136128825   -1.4942127104   -0.0558478536
C        2.5042279420   -1.5790919445   -0.1220784086
N        3.5653750123   -0.6975304080   -0.2867422993
N        1.2760037328   -0.9323130822   -0.1800163050
O        2.6361992299   -2.7857009507    0.0526757603
H        8.8120348850   -1.5267679441   -0.3049099141
H       -3.6735771193   -2.8113278339    0.2512456300
H        7.2658660315   -3.4458134065    0.0568573593
H        7.8599095164    0.7563863788   -0.6538385703
H       -3.2362162500   -0.3708469664   -0.0547260460
H       -1.7474075639   -4.3870680824    0.3573963349
H        4.8130468731   -3.1068396545    0.0715110324
H        5.4175207065    1.0986553795   -0.6384484680
H       -0.9225769398    0.4612146550   -0.2485534632
H        0.5770752709   -3.5558004382    0.1643400185
H        3.3453953978    0.2764006726   -0.4478061936
H        1.2799946428    0.0719856989   -0.2994425050
