34

C      5.43926   -4.61544    1.73980
C      5.55088   -3.30298    2.21844
C      4.32640   -5.01501    0.98912
C      4.54866   -2.35849    1.95578
C     -0.70964   -8.53920   -3.02248
C     -2.94999   -6.91404   -3.64907
C      3.32660   -4.07531    0.72628
C     -0.75552   -7.19180   -2.56024
C     -1.75604   -9.02154   -3.77058
C     -2.85746   -8.22278   -4.07871
C      3.45757   -2.77671    1.21154
C     -1.88345   -6.40248   -2.88530
C      2.04486   -4.20059   -0.03220
C      0.40309   -6.76629   -1.77780
C     -3.11913  -10.19657   -5.10577
N      1.27990   -3.15450   -0.12923
N      0.58193   -5.58948   -1.29032
N      1.73534   -5.40498   -0.58825
O      1.18914   -1.48641    1.84955
O      2.38295   -0.81680   -0.27790
O     -1.93692  -10.28345   -4.29199
O     -3.76748   -8.94431   -4.80633
S      1.99762   -1.84712    0.68571
Cl    -2.03966   -4.74598   -2.36848
H      6.22606   -5.33312    1.95364
H      6.42289   -3.01499    2.79877
H      4.26554   -6.03974    0.63063
H      4.62304   -1.33857    2.32089
H      0.14028   -9.17138   -2.78384
H     -3.80843   -6.29559   -3.88520
H      1.15697   -7.55338   -1.62266
H     -2.83547  -10.20915   -6.16546
H     -3.79293  -11.01865   -4.85570
H      2.38911   -6.17821   -0.47320
