43

C     -1.99033    4.94417   -3.83892
C     -1.93382    4.00456   -4.89015
C     -2.44707    4.56714   -2.57704
C     -2.31266    2.67342   -4.70837
C     -2.84548    3.24013   -2.39249
C     -2.76164    2.30811   -3.43539
C     -3.36304    2.54139   -1.20652
C     -2.78404   -0.96644   -0.90832
C      0.69276   -1.02547   -0.86596
C     -0.54895   -1.73113   -0.28662
C     -1.43082    0.31850    0.77377
C      0.06892    0.65741    0.89788
C      0.78933    0.47120   -0.45454
C      0.23076    2.04947    1.51757
C      0.22669    1.37125   -1.56109
C     -3.88977    0.09958   -0.80842
N     -3.11589    1.03481   -2.96469
N     -3.61245    1.24697   -1.65263
N     -1.66098   -0.78977   -0.16301
O     -3.52750    2.92946   -0.04802
O     -2.95390   -1.91886   -1.67696
O      2.16590    0.82082   -0.20321
H     -1.67576    5.96767   -4.02118
H     -1.57765    4.32252   -5.86653
H     -2.50351    5.27257   -1.75294
H     -2.24691    1.95247   -5.51857
H      1.58938   -1.53601   -0.50081
H      0.68505   -1.10652   -1.95855
H     -0.87484   -2.55621   -0.91781
H     -0.32985   -2.13457    0.70907
H     -1.81912    0.05732    1.76804
H     -1.96866    1.20506    0.44495
H      0.53941   -0.06099    1.58073
H     -0.24962    2.82202    0.90964
H      1.28769    2.29857    1.62919
H     -0.23820    2.07816    2.50747
H      0.23007    2.42347   -1.26794
H     -0.78764    1.07876   -1.83550
H      0.83786    1.27132   -2.46682
H     -4.04271    0.49911    0.19568
H     -4.80960   -0.39299   -1.13645
H     -3.77096    0.49977   -3.53370
H      2.64175    0.76899   -1.04766
