39

C      4.92537   -3.32428    5.92314
C      2.48547    2.97450   -4.38728
C      3.84115   -3.56959    5.10515
C      1.83271    2.37793   -3.30774
C      5.57463   -2.06590    5.90130
C      1.85749   -1.69571    2.54477
C      3.61568    2.34451   -4.91687
C      3.46821    0.63693   -3.39914
C      3.37025   -2.55352    4.23536
C      2.32492    1.17443   -2.78800
C      4.00472   -1.27284    4.19084
C      2.25715   -2.73201    3.36121
C      5.11785   -1.08238    5.05621
C      2.56829   -0.46773    2.59271
C      1.07241    1.29843   -0.46807
C      2.50337   -0.24810   -0.56837
C      1.64896    0.46945   -1.64653
C      2.11613    0.69242    1.72792
N      4.10695    1.19373   -4.43667
N      3.60938   -0.25392    3.37705
N      1.55702    0.25120    0.46094
O      1.64040   -3.94896    3.38840
F      5.74222    0.11366    5.04073
H      5.29151   -4.09701    6.59305
H      2.13109    3.90986   -4.81168
H      3.33888   -4.53074    5.11606
H      0.95192    2.84433   -2.87149
H      6.42856   -1.86076    6.53988
H      1.01952   -1.78857    1.85838
H      4.14999    2.78223   -5.75879
H      3.89363   -0.29496   -3.02689
H      1.60706    2.25480   -0.35221
H     -0.00755    1.47832   -0.43426
H      2.59807   -1.33750   -0.61721
H      3.50538    0.19923   -0.47590
H      0.88296   -0.21350   -2.02890
H      1.33422    1.24524    2.26612
H      2.97173    1.37672    1.60586
H      0.90210   -3.94278    2.75719
