43

C      0.71304    1.11726    7.93570
C      1.41192    2.26007    7.49602
C     -0.24611    0.51881    7.11893
C      1.18473    2.82097    6.23700
C     -0.48736    1.08601    5.86548
C      0.23086    2.20124    5.42489
C     -1.41929    0.70568    4.79416
C     -0.29500    0.38925    1.95054
C     -0.40598    1.45818   -1.36859
C     -1.19108    0.57001   -0.39515
C      0.80069   -0.76232    0.08361
C      1.68090    0.09837   -0.84204
C      0.80918    0.71599   -1.96416
C      2.48033    1.13026   -0.03393
C      1.60668    1.63698   -2.89090
C     -1.42631    1.33313    2.42169
N     -0.14466    2.54309    4.10825
N     -1.26758    1.70514    3.80941
N     -0.30062    0.03448    0.63110
O     -2.19085   -0.24104    4.69530
O      0.54063   -0.01959    2.75321
O      0.34227   -0.42621   -2.72071
H      0.92750    0.70533    8.91773
H      2.15511    2.71122    8.14855
H     -0.80142   -0.35950    7.43549
H      1.74277    3.69042    5.89987
H     -1.06517    1.78665   -2.18320
H     -0.06746    2.36146   -0.84873
H     -2.01459    1.12245    0.05507
H     -1.62815   -0.27309   -0.94231
H      0.37607   -1.59985   -0.47788
H      1.37947   -1.15320    0.91954
H      2.38509   -0.57805   -1.34136
H      1.83105    1.85754    0.46303
H      3.18858    1.67864   -0.66086
H      3.04919    0.62616    0.75224
H      2.48418    1.11455   -3.28441
H      1.93915    2.54456   -2.38037
H      0.98593    1.94855   -3.74059
H     -2.39136    0.82677    2.33940
H     -1.46603    2.24127    1.81411
H     -0.43244    3.51933    4.03155
H     -0.15314   -0.09449   -3.48681
