43

C     -0.22358    2.06962    8.63617
C     -0.66083    3.29141    8.08238
C      0.03009    0.97248    7.81402
C     -0.83991    3.45337    6.70745
C     -0.16188    1.12298    6.43760
C     -0.57203    2.34792    5.89269
C     -0.00875    0.16891    5.32643
C     -1.31369    0.78968    1.92825
C     -1.79180    1.32442   -1.46835
C     -2.35340    0.54615   -0.27514
C     -0.17853   -0.51929    0.10509
C      0.47887    0.26311   -1.04952
C     -0.59585    0.61101   -2.11653
C      1.25960    1.47550   -0.52179
C     -0.03099    1.43780   -3.27473
C     -0.12851    0.48636    2.85765
N     -0.62172    2.26493    4.49153
N     -0.41224    0.88949    4.20716
N     -1.28558    0.24206    0.68397
O      0.39308   -0.99589    5.30707
O     -2.23530    1.51995    2.31733
O     -1.14008   -0.62366   -2.63920
H     -0.08920    1.98854    9.71109
H     -0.85812    4.13213    8.74262
H      0.35895    0.01866    8.21682
H     -1.16579    4.40186    6.28934
H     -2.57469    1.44863   -2.22357
H     -1.48644    2.32330   -1.14140
H     -3.11981    1.11850    0.24484
H     -2.78751   -0.39901   -0.61718
H     -0.57735   -1.46561   -0.27448
H      0.56455   -0.75461    0.86547
H      1.19751   -0.41796   -1.52852
H      0.60378    2.20017   -0.02986
H      1.79271    1.99491   -1.32178
H      2.00767    1.15439    0.21085
H      0.85432    0.95512   -3.70844
H      0.25768    2.44402   -2.96001
H     -0.78966    1.52908   -4.05758
H      0.76854    0.99645    2.48014
H      0.08615   -0.58311    2.91537
H     -1.50077    2.54761    4.05150
H     -0.43720   -1.07413   -3.13473
