34

C     -0.11853   -2.32231    1.33075
C      1.00144   -1.46230    1.20639
C      2.06394   -5.60007   -1.53380
C     -0.11688   -3.54073    0.68894
C      2.09683   -1.83992    0.45750
C      0.98456   -5.20673   -0.76870
C      3.19787   -4.77007   -1.64283
C      0.99605   -3.95755   -0.09414
C      2.14146   -3.09876   -0.20964
C      3.26052   -3.53937   -0.99907
C      8.32684    0.77721   -0.21353
C      7.07074    0.31529    0.24032
C      7.06000   -1.22273   -1.40066
C      4.46804   -2.70844   -1.10031
C      9.05912    1.90993    0.44469
N      8.87634    0.17495   -1.27154
N      6.42244   -0.67851   -0.34397
N      8.26095   -0.83015   -1.87997
N      5.36565   -2.99109   -1.98753
N      6.51639   -2.27270   -2.10422
O      6.50674    0.90891    1.31175
H     -0.97491   -2.01414    1.92458
H      0.99229   -0.49410    1.70058
H      2.05030   -6.55787   -2.04728
H     -0.97417   -4.20528    0.76854
H      2.92691   -1.14768    0.36685
H      0.11175   -5.84829   -0.67267
H      4.05255   -5.09080   -2.22954
H      4.59210   -1.88101   -0.41433
H      9.27099    1.68555    1.49555
H      9.99967    2.08121   -0.08189
H      8.46395    2.82917    0.42570
H      7.10820   -2.59293   -2.86132
H      5.66233    0.45027    1.48267
