39

C     -4.47037   -5.82017    4.12516
C      4.75872   -0.26042   -0.56745
C     -3.34427   -5.05942    4.36656
C      3.53108   -0.49998   -1.19003
C     -5.24740   -5.60834    2.96039
C     -1.50206   -2.27486    2.67849
C      4.77964   -0.07215    0.81602
C      2.50871   -0.33598    0.96523
C     -2.96106   -4.05480    3.44238
C      2.36478   -0.54335   -0.41918
C     -3.72567   -3.81663    2.25782
C     -1.80959   -3.23148    3.62206
C     -4.87326   -4.63477    2.06462
C     -2.34169   -2.13223    1.54260
C     -0.12994    0.15121   -0.60757
C      0.17227   -1.92114   -0.35157
C      1.01958   -0.80890   -1.03996
C     -2.02680   -1.06382    0.51381
N      3.67602   -0.10740    1.57924
N     -3.41262   -2.87396    1.32448
N     -0.59693   -0.87026    0.35483
O     -1.06557   -3.44822    4.74408
F     -5.61787   -4.44001    0.95596
H     -4.77121   -6.59094    4.82896
H      5.68132   -0.22089   -1.14000
H     -2.74368   -5.21616    5.25590
H      3.47999   -0.65277   -2.26636
H     -6.13503   -6.20047    2.75895
H     -0.63048   -1.63199    2.77110
H      5.71828    0.11491    1.33553
H      1.62470   -0.35727    1.60108
H      0.15609    1.10797   -0.15725
H     -0.84003    0.33078   -1.43018
H     -0.43586   -2.48730   -1.07428
H      0.70101   -2.62140    0.30334
H      1.12535   -0.92658   -2.12010
H     -2.53118   -1.33992   -0.42701
H     -2.46190   -0.11261    0.84884
H     -0.31260   -2.83416    4.74940
