43

C     -4.39984   -6.02832    3.04473
C     -5.03636   -5.09227    3.88739
C     -3.15235   -5.74621    2.49063
C     -4.44438   -3.86979    4.20791
C     -2.55737   -4.51828    2.79647
C     -3.19082   -3.59956    3.64844
C     -1.30148   -3.90651    2.33185
C     -0.99341   -0.55105    1.91386
C     -0.12577    1.48617   -0.78872
C     -1.26255    0.64373   -0.19991
C      0.17124   -1.33827   -0.18573
C      1.38630   -0.56091   -0.71956
C      0.89167    0.64150   -1.57203
C      2.34234   -0.17998    0.41970
C      2.04087    1.51392   -2.08458
C     -0.31472   -1.63150    2.76774
N     -2.36942   -2.47886    3.85107
N     -1.25688   -2.69649    3.00229
N     -0.69844   -0.45318    0.59526
O     -0.43532   -4.30653    1.54622
O     -1.83644    0.16601    2.47994
O      0.14825    0.13005   -2.70313
H     -4.89152   -6.97255    2.82861
H     -6.01164   -5.33114    4.30361
H     -2.64674   -6.44703    1.83236
H     -4.93632   -3.16049    4.86767
H     -0.54357    2.24044   -1.46346
H      0.38835    2.01530    0.02000
H     -1.90399    1.23916    0.44801
H     -1.87133    0.21775   -1.00434
H     -0.41926   -1.71187   -1.02823
H      0.46820   -2.20916    0.39503
H      1.92599   -1.23577   -1.39990
H      1.87243    0.50468    1.13252
H      3.25280    0.29599    0.04702
H      2.64587   -1.07628    0.97137
H      2.78986    0.90754   -2.60981
H      2.54853    2.04381   -1.27419
H      1.64822    2.25591   -2.78608
H     -0.05069   -1.16371    3.72000
H      0.57349   -2.08543    2.33445
H     -2.78189   -1.56105    3.66148
H      0.75965   -0.38388   -3.25510
