21

C      1.74499   -1.03847    0.66597
C      0.67377   -0.46009    1.34702
C      2.68715   -1.82163    1.34452
C      1.46549   -1.43391    3.41628
C      0.52805   -0.65153    2.73020
C      2.52970   -2.00805    2.71630
C     -1.94783   -0.70583    3.02754
C     -0.65654   -0.04467    3.45937
N     -2.81305   -0.21932    2.20676
N     -2.22049   -1.94538    3.61101
O     -2.43620    1.08529    1.75953
Br     3.80268   -3.08113    3.67291
H      1.85527   -0.88407   -0.40422
H     -0.05968    0.14025    0.81544
H      3.52111   -2.27352    0.81758
H      1.37331   -1.58782    4.48768
H     -0.54681   -0.17685    4.53938
H     -0.72436    1.02331    3.24888
H     -1.39778   -2.53706    3.68774
H     -2.98374   -2.43123    3.14807
H     -3.21156    1.34302    1.23670
