25

C     -3.39417   -1.56973   -6.38512
C     -4.13536   -0.59130   -7.06233
C     -2.90040    1.13796   -5.85995
C     -2.15893    0.15882   -5.18653
C     -2.42798   -1.19313   -5.46877
C     -3.87288    0.74617   -6.78638
C      2.44395    2.13674   -2.75231
C      1.72998    3.42913   -2.33645
C      0.23268    1.76795   -2.94289
C     -0.89658    1.76535   -3.95609
O      1.46635    1.48827   -3.56969
O      0.33598    3.07731   -2.37956
O     -1.18724    0.40436   -4.26958
F     -1.71645   -2.14088   -4.81825
Br    -4.86668    2.10909   -7.70294
H     -3.56298   -2.62683   -6.56642
H     -4.89381   -0.87422   -7.78340
H     -2.72903    2.19033   -5.67358
H      3.34023    2.29633   -3.35390
H      2.69111    1.51303   -1.88208
H      1.99004    3.75571   -1.32520
H      1.91372    4.24594   -3.04308
H      0.03678    1.03781   -2.14167
H     -0.57784    2.31750   -4.84735
H     -1.77145    2.25411   -3.51163
