43

C     -3.52503   -4.63069   -4.32181
C     -4.40928   -5.25109   -5.17957
C     -4.89784   -6.95799   -3.50003
C     -2.83002   -6.13032   -0.50169
C     -3.98849   -6.32257   -2.61675
C     -3.28738   -5.14456   -3.01839
C     -3.72544   -6.80644   -1.30215
C     -5.08283   -6.41205   -4.74620
C     -2.18746   -4.96337   -1.00261
C      0.66420    0.86378   -0.00009
C      0.37762    0.47492   -2.33743
C     -0.27984   -2.45729   -1.64015
C     -0.04931   -2.11678    0.43484
C      0.14230    2.28422   -0.19370
C     -0.13868    1.90215   -2.48990
C      0.51383   -1.40464   -0.82337
C     -1.17173   -4.26196   -0.12100
N     -2.39925   -4.48722   -2.21375
N      0.06547   -0.02963   -0.99639
N     -1.00975   -2.85606   -0.41335
O      0.42143    2.76993   -1.50542
O     -4.39705   -7.92870   -0.91224
F     -5.94819   -7.00187   -5.61202
H     -2.98944   -3.73389   -4.61723
H     -4.60159   -4.86946   -6.17781
H     -5.43371   -7.85156   -3.20024
H     -2.61654   -6.47279    0.50945
H      1.76907    0.86902   -0.07550
H      0.39985    0.51996    1.00497
H     -0.10248   -0.16115   -3.08717
H      1.46812    0.46050   -2.52951
H     -0.93187   -2.09712   -2.43726
H      0.36735   -3.25172   -2.04086
H      0.70683   -2.76010    0.91337
H     -0.52329   -1.48928    1.19725
H     -0.94295    2.30327   -0.01035
H      0.63144    2.97257    0.50076
H      0.14711    2.31342   -3.46173
H     -1.23646    1.90460   -2.40994
H      1.60997   -1.48419   -0.92815
H     -1.48683   -4.35623    0.92513
H     -0.21295   -4.81947   -0.20655
H     -4.14007   -8.15704   -0.00393
