34

C      4.04209   -6.45578    3.55527
C      4.15659   -5.24949    4.25952
C      3.11034   -6.59811    2.51934
C      3.33903   -4.15566    3.94211
C     -1.98843   -6.25872   -2.60203
C     -2.39187   -8.60209   -4.18526
C      2.29489   -5.50921    2.20158
C     -1.20590   -7.42497   -2.36826
C     -2.92727   -6.30385   -3.60162
C     -3.12728   -7.45033   -4.37957
C      2.42510   -4.31973    2.91406
C     -1.42634   -8.56453   -3.16259
C      1.22780   -5.35968    1.16678
C     -0.19733   -7.40624   -1.31185
C     -4.53224   -5.85719   -5.11283
N      0.60881   -4.21983    1.07807
N     -0.01283   -6.34804   -0.60181
N      0.94830   -6.42141    0.36092
O      0.19700   -2.85315    3.23780
O      1.92297   -2.04542    1.57406
O     -3.79816   -5.31870   -4.00306
O     -4.12081   -7.22972   -5.29285
S      1.22613   -3.14475    2.24065
Cl    -0.48857  -10.03728   -2.92023
H      4.68429   -7.29210    3.81583
H      4.88630   -5.16144    5.05944
H      3.04263   -7.54524    1.98962
H      3.41791   -3.21581    4.48018
H     -1.82699   -5.37593   -1.99330
H     -2.54640   -9.49094   -4.78581
H      0.38737   -8.31831   -1.15197
H     -5.60260   -5.83187   -4.88951
H     -4.29368   -5.29128   -6.01969
H      1.47484   -7.28405    0.48559
