43

C     -1.02148   -7.52257    2.25046
C     -2.23873   -7.08360    2.81351
C      0.00388   -6.61558    1.98805
C     -2.45693   -5.74445    3.14015
C     -0.21102   -5.26968    2.30058
C     -1.41925   -4.84420    2.87529
C      0.63083   -4.07959    2.09402
C     -0.70686   -1.02874    1.42686
C     -0.31569    1.27483   -1.17401
C     -0.98072   -0.05315   -0.79612
C      1.19580   -1.01966   -0.23554
C      1.94355    0.29060   -0.53482
C      1.15136    1.10192   -1.59841
C      2.24367    1.06287    0.75771
C      1.79181    2.45916   -1.90226
C      0.17490   -1.64101    2.52444
N     -1.36630   -3.46896    3.15467
N     -0.12176   -3.04757    2.62656
N     -0.16943   -0.73657    0.21804
O      1.75014   -3.94408    1.58775
O     -1.91051   -0.87182    1.69478
O      1.08980    0.32652   -2.81830
H     -0.88948   -8.57596    2.02032
H     -3.02632   -7.80804    3.00412
H      0.94616   -6.92844    1.54721
H     -3.39257   -5.41736    3.58510
H     -0.86481    1.73380   -2.00262
H     -0.36863    1.96099   -0.32274
H     -1.97704    0.10394   -0.38566
H     -1.05988   -0.69890   -1.67701
H      1.11658   -1.61044   -1.15360
H      1.72874   -1.63666    0.48502
H      2.90479    0.01484   -0.99260
H      1.32663    1.38446    1.26101
H      2.85338    1.95044    0.57099
H      2.79935    0.42694    1.45530
H      2.85066    2.34304   -2.16665
H      1.73303    3.14194   -1.05045
H      1.27650    2.92225   -2.74893
H     -0.09371   -1.14429    3.46064
H      1.24788   -1.55491    2.36948
H     -2.12202   -2.88991    2.77783
H      1.99567    0.21972   -3.15089
