32

C      7.78820   -3.94730    2.10350
C      8.67641    4.19750    2.45453
C      8.38836    4.65710    3.74280
C      5.05374   -6.58723    4.56162
C      8.64436    2.82971    2.19494
C      8.07905    3.74335    4.75241
C      5.87342   -5.66547    3.86647
C      4.34670   -6.00520    5.59377
C      8.32640    1.90709    3.20877
C      8.04033    2.36083    4.51754
C      5.78866   -4.37169    4.37499
C      8.31795    0.47836    2.84666
C      7.84339   -1.57145    2.78517
C      6.42629   -3.14785    3.99207
C      7.32525   -2.91974    2.98382
C      7.71667    1.43316    5.66676
N      8.14605   -4.80670    1.40179
N      7.55371   -0.49303    3.46706
N      9.04587    0.02026    1.84174
O      8.72565   -1.35008    1.79353
S      4.67230   -4.32342    5.73067
H      8.91884    4.89699    1.65930
H      8.40586    5.72150    3.96273
H      4.98374   -7.64110    4.31464
H      8.85876    2.45705    1.19831
H      7.86616    4.10864    5.75422
H      6.50155   -5.93500    3.02716
H      3.65424   -6.48218    6.27607
H      6.17237   -2.26397    4.57377
H      6.73527    0.96883    5.53850
H      8.43952    0.61661    5.74609
H      7.71843    1.98726    6.60917
