75

C      3.39302   -0.20242   -4.58624
C      5.93187  -18.70662   -1.18232
C      3.86158   -0.75552   -3.38882
C      2.14080    0.42031   -4.61022
C      7.00279  -17.84483   -0.92421
C      4.61886  -18.24618   -1.03243
C      3.08260   -0.69487   -2.23318
C      1.36715    0.48849   -3.44878
C      1.69235   -3.34363    0.33741
C      0.81160   -2.98696   -1.86980
C     -0.92506   -1.75487    1.52765
C      6.75871  -16.53033   -0.51620
C      4.37468  -16.93397   -0.62114
C      2.03446   -4.65838    0.00333
C      1.13588   -4.29201   -2.21637
C     -1.56676   -1.59902    2.75579
C     -0.12158    0.28517    3.23578
C      1.09434   -2.47703   -0.58750
C      1.81716   -0.07939   -2.24340
C      0.10555   -0.89439    1.11917
C      0.51821    0.13414    2.00324
C      5.44534  -16.06498   -0.35470
C      1.75871   -5.13814   -1.28417
C     -1.16314   -0.56852    3.61292
C      0.75556   -1.08034   -0.20635
C      0.99740   -0.00538   -1.00704
C      1.66437    1.04393    1.62418
C      0.46777    1.36051   -0.60831
C      1.31392    2.03178    0.49230
C      5.18036  -14.64629    0.05475
C      3.57387   -9.67141   -0.65512
C      2.89551   -8.62331   -1.54443
C      3.79918  -11.00005   -1.38828
C      2.67784   -7.30637   -0.81408
C      4.46557  -12.04487   -0.49591
O      3.18485  -14.08935   -1.69120
O     -1.74488   -0.35497    4.84102
O      2.04495   -6.40348   -1.72246
S      4.61274  -13.64233   -1.41110
H      3.99766   -0.25312   -5.48812
H      6.11910  -19.72945   -1.49898
H      4.83685   -1.23504   -3.35591
H      1.76456    0.85166   -5.53467
H      8.02537  -18.19510   -1.03895
H      3.78330  -18.90974   -1.23957
H      3.44945   -1.13198   -1.30949
H      0.39004    0.96376   -3.48598
H      1.90316   -2.98467    1.34131
H      0.33072   -2.34706   -2.60275
H     -1.23257   -2.55995    0.86632
H      7.59507  -15.86323   -0.31716
H      3.35650  -16.56794   -0.52711
H      2.50581   -5.28864    0.74900
H      0.91355   -4.68195   -3.20549
H     -2.37159   -2.27368    3.04432
H      0.18753    1.06441    3.92753
H      2.01184    1.59557    2.50319
H      2.50044    0.42131    1.28614
H      0.42946    2.02222   -1.47780
H     -0.55707    1.25371   -0.23734
H      0.75081    2.88353    0.89259
H      2.24451    2.42911    0.07045
H      4.36141  -14.57001    0.77648
H      6.07476  -14.16220    0.45824
H      4.53572   -9.28229   -0.29413
H      2.95842   -9.85118    0.23650
H      3.50400   -8.43470   -2.43645
H      1.92705   -8.99819   -1.89440
H      2.84121  -11.39870   -1.73833
H      4.41626  -10.82734   -2.27899
H      3.63646   -6.88672   -0.47787
H      2.04192   -7.45356    0.07021
H      5.47574  -11.74324   -0.19502
H      3.86439  -12.24207    0.39860
H     -2.44855   -1.00983    4.97303
