33

C     -1.09415   -3.82837    1.72309
C     -0.83174   -2.49949    1.37681
C      0.87975   -3.27846   -0.15176
C     -0.38756   -4.89484    1.15229
C      0.61846   -4.59660    0.19714
C      0.16135   -2.22025    0.43104
C      0.32587   -7.23468    1.25255
C     -0.62011   -6.30852    1.52571
C     -1.99170   -6.17140    3.66840
C      1.36035   -5.74117   -0.45642
C      1.60675   -6.88003    0.53908
C     -3.17946   -6.43405    1.43353
C     -0.18650    0.14121    0.58098
C     -1.90205   -6.72043    2.23405
O     -3.01686   -5.80987    4.20124
O     -0.81867   -6.16694    4.35620
O      0.50790   -0.96630    0.01238
H     -1.86168   -4.00978    2.46784
H     -1.39979   -1.70789    1.85149
H      1.64705   -3.03879   -0.88340
H      0.16795   -8.27055    1.54876
H      0.74954   -6.12598   -1.28559
H      2.30230   -5.39075   -0.88872
H      2.36832   -6.57689    1.27377
H      2.00777   -7.75708    0.02104
H     -3.31298   -5.36689    1.24835
H     -4.05413   -6.79217    1.98057
H     -3.12782   -6.94450    0.46752
H      0.24078    1.03093    0.11684
H     -0.03827    0.18992    1.66654
H     -1.25973    0.09506    0.35974
H     -1.83911   -7.80742    2.37849
H     -0.09873   -6.41774    3.74517
