39

C     -0.62669   -0.65810   -0.03339
C     -1.10508   -1.91372    0.70693
C      0.25007    0.06466    0.99513
C      0.13507   -2.39187    1.46163
C     -0.08056   -3.30380    2.66355
C      1.22907   -3.66432    3.37621
C      3.58637   -5.83124    7.74202
C      3.35549   -6.76731    8.93492
C      1.02691   -4.59806    4.57187
C      2.32339   -5.75143    6.88013
C      4.57059   -6.85423    9.83820
N      0.80299   -1.05944    1.88697
O      2.83962   -3.27798    5.97587
O      3.60563   -5.26815    4.57053
F      4.34411   -7.69011   10.87672
F      5.65860   -7.31490    9.17357
F      4.89811   -5.64326   10.35439
S      2.61996   -4.64704    5.47037
H     -0.03866   -0.93065   -0.91438
H     -1.44688   -0.01857   -0.36396
H     -1.91067   -1.67488    1.41049
H     -1.46977   -2.68987    0.03141
H      1.08691    0.62043    0.57336
H     -0.32746    0.72628    1.64116
H      0.84394   -2.84449    0.76225
H     -0.78492   -2.82868    3.35958
H     -0.57688   -4.20699    2.29261
H      1.71640   -2.75630    3.75223
H      1.92482   -4.13371    2.67338
H      3.84724   -4.83153    8.09813
H      4.41909   -6.19895    7.13718
H      2.52218   -6.42319    9.55470
H      3.12904   -7.78482    8.60316
H      0.27536   -4.21674    5.26891
H      0.77210   -5.61536    4.26375
H      2.05031   -6.72420    6.46042
H      1.47696   -5.33380    7.43356
H      1.82286   -1.12678    1.82306
H      0.59658   -0.86606    2.87206
