38

C      0.62652   -3.18195    3.21205
C      1.80645   -3.44645    2.23654
C     -0.54178   -4.01358    2.64058
C      1.25213   -4.45693    1.21119
C      1.83898   -4.33073   -0.19512
C      3.36189   -4.51832   -0.27422
C      7.42569   -8.09870    0.37771
C      7.71297   -9.54029    0.81447
C      3.80657   -5.91873    0.15607
C      5.92865   -7.80278    0.47652
C      9.18321   -9.89454    0.74074
N     -0.18724   -4.15510    1.22106
O      6.26173   -5.19214    0.93079
O      5.93020   -5.98213   -1.47754
F      9.39658  -11.17689    1.13206
F      9.67400   -9.77454   -0.51825
F      9.93889   -9.10195    1.54158
S      5.60632   -6.08537   -0.04275
H      0.85942   -3.47482    4.23931
H      0.37195   -2.11928    3.22401
H      2.09362   -2.52309    1.72389
H      2.69684   -3.82850    2.74339
H     -0.59663   -4.98700    3.15946
H     -1.51177   -3.51885    2.74981
H      1.43823   -5.47877    1.59586
H      1.34697   -5.05108   -0.86320
H      1.58748   -3.33379   -0.57353
H      3.86617   -3.77587    0.35087
H      3.69113   -4.34791   -1.30364
H      7.97617   -7.39903    1.01185
H      7.75851   -7.94645   -0.65223
H      7.39732   -9.70972    1.84844
H      7.18114  -10.25792    0.18235
H      3.59745   -6.11608    1.21026
H      3.34699   -6.69594   -0.46263
H      5.34137   -8.44781   -0.18389
H      5.56242   -7.89606    1.50336
H     -0.72637   -4.89227    0.77093
