24   

C       -4.2534858225   -1.0923242321    5.2354980503
C       -4.4072098583   -0.5769537355    3.9335697705
C       -2.0772034608   -1.5831338770    4.7813886011
C       -2.2078636695   -1.0693911013    3.4642395864
C       -1.1513787710   -0.5771747403    1.2116694518
C       -0.0365808365   -0.5511808993    0.4173173485
C       -1.0318912658   -1.0975458541    2.5615122465
C       -0.9539104098    0.9614746155   -1.2966597976
C        1.3946642746    0.0113695852   -1.4857862095
N       -3.0894701735   -1.6007588712    5.6753562516
N       -3.4001020899   -0.5586883692    3.0426397338
N        0.1311845658    0.1350126058   -0.7389896955
O        0.0352564079   -1.5613260862    2.9578164717
H       -5.1062359001   -1.0767141108    5.9038389315
H       -5.3716276500   -0.1805634281    3.6384567620
H       -1.1226702735   -1.9852372900    5.1009314883
H       -2.0825149720   -0.1364399724    0.8857075086
H        0.8384182539   -1.0821346853    0.7850101338
H       -1.3010774186    1.6871009704   -0.5541985589
H       -1.7912555125    0.3273825437   -1.6055244691
H       -0.6035535108    1.5169908936   -2.1722937280
H        1.2649324673   -0.6738510993   -2.3298105745
H        2.1932040837   -0.3740736654   -0.8437751288
H        1.7117697535    0.9887791560   -1.8625806001
24   

C       -4.2321398287   -1.0184333394    5.2397837514
C       -4.4227922762   -0.6467882283    3.8945197277
C       -2.0484074839   -1.4872921603    4.7980440787
C       -2.2158736574   -1.1168324568    3.4377671000
C       -1.2022955628   -0.8069492570    1.1327491529
C       -0.0831200804   -0.7225167118    0.3445910135
C       -1.0511098473   -1.1927808280    2.5234116666
C       -0.9490316876    0.9947061483   -1.1926675243
C        1.3969344662    0.0508987817   -1.4444516627
N       -3.0456799564   -1.4429449612    5.7078372672
N       -3.4306764506   -0.6903776289    2.9878254625
N        0.1175053245    0.0964684538   -0.7163210281
O        0.0386603241   -1.5742366269    2.9448449324
H       -5.0742100551   -0.9582802220    5.9190494079
H       -5.4038900055   -0.3125912237    3.5781403174
H       -1.0758840419   -1.8224513313    5.1397927057
H       -2.1488337565   -0.4115500236    0.7929659591
H        0.7926421962   -1.2635902963    0.6956512342
H       -1.3281420055    1.6080841673   -0.3690314790
H       -1.7709842987    0.4114763452   -1.6202159666
H       -0.5675191643    1.6690596963   -1.9658155722
H        1.2837052365   -0.5340660820   -2.3630201004
H        2.1796512820   -0.4090526474   -0.8327514640
H        1.7255134163    1.0626359887   -1.7017993170
24   

C       -4.1910277941   -0.9197451272    5.2363377171
C       -4.4145007079   -0.6940725846    3.8640325273
C       -1.9946535197   -1.3391780630    4.8070332761
C       -2.1950752951   -1.1150118289    3.4196170347
C       -1.2221540780   -0.9951239950    1.0789230888
C       -0.1104440819   -0.8616522626    0.2803462004
C       -1.0389014641   -1.2300990674    2.4984524936
C       -0.9411121670    1.0288000974   -1.0563377163
C        1.3948463105    0.0870320342   -1.4008716170
N       -2.9815080346   -1.2451185281    5.7244531719
N       -3.4328951117   -0.7875670633    2.9497705477
N        0.1101841978    0.0671360986   -0.6809429263
O        0.0735537541   -1.5155193627    2.9360108504
H       -5.0262855240   -0.8261474440    5.9202185500
H       -5.4128888703   -0.4342433832    3.5322652205
H       -1.0041249669   -1.5966870104    5.1640364838
H       -2.1866049520   -0.6547315058    0.7296377380
H        0.7679552086   -1.4145166753    0.6057625784
H       -1.3373377510    1.5289474075   -0.1668223692
H       -1.7552550849    0.5140230736   -1.5765902335
H       -0.5384547862    1.7984866854   -1.7222934887
H        1.2830139621   -0.3940199862   -2.3780465115
H        2.1680990045   -0.4446513706   -0.8371883867
H        1.7354215089    1.1170449925   -1.5452575069
24   

C       -4.1565242384   -0.8108132751    5.2137523634
C       -4.4051074415   -0.7371085349    3.8292965748
C       -1.9466876059   -1.1666270860    4.7954002887
C       -2.1723555377   -1.0950594230    3.3957717477
C       -1.2278250986   -1.1769450052    1.0417766891
C       -0.1363085179   -1.0005074660    0.2132370898
C       -1.0210837146   -1.2459163426    2.4735240764
C       -0.9492708732    1.0297842357   -0.9039727187
C        1.3673248490    0.0945173611   -1.3771030314
N       -2.9274532784   -1.0268567295    5.7136106710
N       -3.4297308619   -0.8769269100    2.9143527135
N        0.0891567358    0.0159717419   -0.6496483034
O        0.1106365463   -1.4230836436    2.9183143316
H       -4.9882002932   -0.6875765041    5.8973027300
H       -5.4182545839   -0.5594797438    3.4881675688
H       -0.9409998250   -1.3390743018    5.1611123674
H       -2.2124904253   -0.9074986976    0.6866154721
H        0.7474675253   -1.5658160990    0.5003302826
H       -1.3438709896    1.4192940450    0.0399665442
H       -1.7672085220    0.5943566707   -1.4868738577
H       -0.5343140774    1.8724464663   -1.4659174055
H        1.2361823186   -0.2659280303   -2.4026046822
H        2.1343514060   -0.5154538399   -0.8893228596
H        1.7283867683    1.1273278535   -1.4034110808
24   

C       -4.1297858998   -0.7228210159    5.1690044617
C       -4.3950040572   -0.8062038848    3.7882608180
C       -1.9052541332   -0.9787868028    4.7545470970
C       -2.1476240387   -1.0648710258    3.3586366207
C       -1.2183900738   -1.3388691455    1.0146078211
C       -0.1552188538   -1.1293624677    0.1424300428
C       -0.9971777362   -1.2357045441    2.4386459039
C       -0.9374929475    1.0226012909   -0.7296966457
C        1.3308564918    0.0748545893   -1.3800345270
N       -2.8848313789   -0.8085884848    5.6689803821
N       -3.4208522125   -0.9768096963    2.8773453908
N        0.0728800027   -0.0445770503   -0.6234618472
O        0.1485329427   -1.2880704408    2.8791928935
H       -4.9616089707   -0.5835138154    5.8492829313
H       -5.4204073686   -0.7280749706    3.4464101555
H       -0.8872950993   -1.0497573703    5.1200501131
H       -2.2231907537   -1.1604573327    0.6581506501
H        0.7283943184   -1.7213846401    0.3688611480
H       -1.2951584627    1.3128478308    0.2634587977
H       -1.7840671331    0.6824408539   -1.3345746542
H       -0.5085672250    1.9117426844   -1.2024702108
H        1.1547779286   -0.1551309154   -2.4359001241
H        2.0876456643   -0.6163734248   -0.9956204568
H        1.7314038291    1.0898615092   -1.2958454508
24   

C       -4.1395135361   -0.9097505554    5.3196894949
C       -4.4542552749   -1.3094038362    4.0062972681
C       -2.1238669728   -0.1347495017    4.5978047972
C       -2.4162074997   -0.5333668401    3.2668664088
C       -1.6524061687   -0.7380593230    0.8556710597
C       -0.5977991070   -0.9828354996   -0.0419927085
C       -1.3905066287   -0.3283084912    2.2149040421
C       -0.2483704841    1.3597700866   -0.6108185632
C        0.9705228738   -0.4926998158   -1.8447793895
N       -2.9749429403   -0.3149906510    5.6310948779
N       -3.6099194063   -1.1256061698    2.9760201479
N       -0.0331895475   -0.0787168568   -0.8505829540
O       -0.2998921788    0.1556677148    2.5055159111
H       -4.8638099479   -1.0913786112    6.1048745647
H       -5.4090791153   -1.7865064443    3.8190768815
H       -1.1700576738    0.3330301136    4.8130384729
H       -2.5795777267   -1.2678386402    0.6871626447
H       -0.4878549808   -2.0189489657   -0.3485197995
H       -1.3166896374    1.5781709020   -0.5150561416
H        0.1385227218    1.9495070755   -1.4476451290
H        0.2672589404    1.6727320100    0.3028610346
H        0.7433291462   -0.0479477186   -2.8186686359
H        0.9815673136   -1.5807158500   -1.9641419928
H        1.9676163442   -0.1717945194   -1.5260754266
24   

C       -4.0864010915   -0.8308005462    5.3035165111
C       -4.4016922645   -1.3390332361    4.0283441613
C       -2.1120445040   -0.0356668162    4.4952331784
C       -2.4053842778   -0.5424428886    3.2014543346
C       -1.6704110245   -0.8971669345    0.8017764989
C       -0.6427459250   -1.0746836508   -0.1276012808
C       -1.4059907922   -0.3667819504    2.1185802547
C       -0.2828949788    1.3211280245   -0.5256158542
C        0.9838150901   -0.4431922853   -1.8308853807
N       -2.9418905010   -0.1713838086    5.5522652282
N       -3.5780156964   -1.2012327567    2.9743729043
N       -0.0356841461   -0.1021281923   -0.8251401556
O       -0.3404368548    0.1935406902    2.3611025586
H       -4.7935403646   -0.9796416513    6.1109216415
H       -5.3402102821   -1.8632563177    3.8915577469
H       -1.1754039337    0.4839903251    4.6612736876
H       -2.5507379405   -1.5166275760    0.7010025238
H       -0.5776249862   -2.0690531200   -0.5594804529
H       -1.3429838045    1.4970179049   -0.3176529696
H       -0.0085837052    1.9437696310   -1.3827484877
H        0.3120864621    1.6376053368    0.3367665893
H        0.8043598078    0.1124036234   -2.7566116956
H        0.9610610699   -1.5113141294   -2.0689931716
H        1.9803665782   -0.1961032032   -1.4505977739
24   

C       -4.0703724121   -0.7897648536    5.2711354786
C       -4.3643972287   -1.3798803466    4.0265655195
C       -2.1193414657    0.0206928566    4.4225997596
C       -2.3916670578   -0.5674528101    3.1587286001
C       -1.6434146842   -1.0349694144    0.7869596276
C       -0.6717114441   -1.1362251631   -0.2011565663
C       -1.3992329374   -0.4120430837    2.0656800810
C       -0.3063398679    1.2885290037   -0.4851704069
C        0.9921889771   -0.4174757079   -1.8290988639
N       -2.9480999756   -0.0816044120    5.4842511280
N       -3.5414053664   -1.2765857757    2.9681387481
N       -0.0237050764   -0.1245103156   -0.8044243313
O       -0.3601874394    0.2055288547    2.2813936640
H       -4.7760044038   -0.9138055830    6.0840305621
H       -5.2859143624   -1.9396117368    3.9178029469
H       -1.2012126026    0.5799837359    4.5608997712
H       -2.4817980586   -1.7153975033    0.7311670217
H       -0.6438888962   -2.0892770357   -0.7212345459
H       -1.3509605556    1.4229162623   -0.1878908665
H       -0.1335469594    1.9183453742   -1.3631880593
H        0.3463216621    1.6342837991    0.3224706226
H        0.8389418515    0.2145511056   -2.7094268298
H        0.9374200163   -1.4618786645   -2.1520987817
H        1.9928394180   -0.2332331837   -1.4247871685
24   

C       -4.0643311394   -0.7850717319    5.2646949821
C       -4.3172691577   -1.4486720819    4.0484852781
C       -2.1369433226    0.0620975233    4.3981926746
C       -2.3687920554   -0.5981252172    3.1619624600
C       -1.5839466990   -1.1410987087    0.8205544347
C       -0.6917623998   -1.1569314940   -0.2359213362
C       -1.3770794820   -0.4434855110    2.0676102065
C       -0.3212408427    1.2827365193   -0.4374763468
C        0.9796294104   -0.3796695773   -1.8268265522
N       -2.9743961042   -0.0220190677    5.4546308114
N       -3.4851708490   -1.3645847596    2.9955259489
N       -0.0133507653   -0.1221979762   -0.7701481082
O       -0.3744738693    0.2368501946    2.2639983821
H       -4.7758763748   -0.8960935368    6.0743093707
H       -5.2143237041   -2.0497674678    3.9573989694
H       -1.2457451754    0.6673097434    4.5180200170
H       -2.3750568799   -1.8778660168    0.8005808685
H       -0.6998628623   -2.0717220937   -0.8213478185
H       -1.3525370555    1.3874023177   -0.0867863882
H       -0.2128084195    1.9162949790   -1.3229951726
H        0.3619842627    1.6491666921    0.3350858749
H        0.8488103276    0.3238075746   -2.6550801837
H        0.8747686786   -1.3921492214   -2.2293244724
H        1.9908560370   -0.2710110700   -1.4215824212
24   

C       -4.0802511613   -0.7797640604    5.2845519952
C       -4.2723508565   -1.5103120197    4.0959561799
C       -2.1776543635    0.1225629871    4.4189293921
C       -2.3491979430   -0.6031097986    3.2096785306
C       -1.4985354885   -1.1997773682    0.9056888591
C       -0.6867210470   -1.1501980025   -0.2079793935
C       -1.3497780076   -0.4371435998    2.1234417667
C       -0.2497546388    1.2842168020   -0.3635868015
C        0.9918160721   -0.3811929630   -1.7937936133
N       -3.0332549623    0.0441152142    5.4611913982
N       -3.4216148794   -1.4329088830    3.0575104077
N        0.0381600647   -0.1236503713   -0.7009454782
O       -0.3945189193    0.3106345316    2.3071754536
H       -4.8045681403   -0.8880219312    6.0831388495
H       -5.1371616991   -2.1581904101    4.0142573922
H       -1.3216989235    0.7785269995    4.5280288736
H       -2.2439465524   -1.9830069562    0.9122222640
H       -0.7390452067   -2.0376659356   -0.8319900116
H       -1.2720491023    1.3979757201    0.0098980116
H       -0.1559718519    1.9163059943   -1.2518086101
H        0.4548350751    1.6456962262    0.3920124048
H        0.8280170663    0.3193053876   -2.6187795566
H        0.8769373861   -1.3953519197   -2.1893344217
H        2.0171411355   -0.2688668500   -1.4269838934
24   

C       -4.1094082863   -0.8451888126    5.2762669969
C       -4.2331913404   -1.6263878427    4.1110974017
C       -2.2482259903    0.1418102736    4.4130968110
C       -2.3521500775   -0.6327181624    3.2264509156
C       -1.4375818495   -1.2360624583    0.9483084519
C       -0.7074214669   -1.1301505869   -0.2149245612
C       -1.3507522965   -0.4327926589    2.1469945195
C       -0.1227073859    1.2774788762   -0.3201441652
C        0.9586044519   -0.4134402970   -1.8363352669
N       -3.1174953389    0.0461545654    5.4425345962
N       -3.3684954248   -1.5323433132    3.0856370462
N        0.0783114649   -0.1372382502   -0.6875251050
O       -0.4528609218    0.3839883780    2.3215149355
H       -4.8422432399   -0.9693135500    6.0647099164
H       -5.0558304031   -2.3278523608    4.0367321583
H       -1.4375837354    0.8542689765    4.5135435285
H       -2.1425438808   -2.0556019404    0.9707216698
H       -0.8188780204   -1.9917391940   -0.8669269284
H       -1.1366854153    1.4446557827    0.0560552630
H        0.0087809334    1.9215682602   -1.1949196185
H        0.6048642578    1.5799749419    0.4396120163
H        0.7075072277    0.2417688027   -2.6765750062
H        0.8569115335   -1.4493845395   -2.1750512824
H        2.0031780676   -0.2498404962   -1.5527716512
24   

C       -4.1610915482   -1.0384338492    5.2441536237
C       -4.0862542522   -1.9025398703    4.1351159285
C       -2.6517491095    0.3524633993    4.2581081202
C       -2.5567397895   -0.5028558563    3.1272710862
C       -1.5270759145   -0.9974824839    0.8717003549
C       -0.7970772749   -0.9363281863   -0.3019619378
C       -1.6409912070   -0.1278209898    2.0157443199
C        0.3772183144    1.2555193339   -0.2984968501
C        0.6943010227   -0.4091359050   -2.1546180244
N       -3.4475853096    0.0978896627    5.3195834791
N       -3.2958308155   -1.6493521155    3.0774496639
N        0.0823792326   -0.0751386148   -0.8552301653
O       -0.9877747105    0.9032368323    2.1186463492
H       -4.8183595647   -1.3025870283    6.0641019375
H       -4.6863407998   -2.8049203296    4.1331455799
H       -2.0612829260    1.2608190376    4.2886830381
H       -2.1367240075   -1.8886483919    0.9241431308
H       -0.9811646463   -1.8191598053   -0.9074505473
H        0.9059352054    1.8693774936   -1.0338421817
H        1.0159562628    1.1665921712    0.5855369446
H       -0.5467739871    1.7859011328   -0.0541185132
H        0.5012145523    0.3888126967   -2.8789107382
H        0.2836781123   -1.3370241696   -2.5651104496
H        1.7754214794   -0.5353566913   -2.0388501644
24   

C       -4.0074254736   -0.9153800077    5.3366428329
C       -3.7832007601   -1.9201997494    4.3757739892
C       -2.9579900833    0.5962935885    3.9962150204
C       -2.7172290701   -0.3996997395    3.0119025333
C       -1.7574556139   -1.0296602556    0.7596176500
C       -1.0039566311   -0.9402337189   -0.3901528568
C       -1.9841780122   -0.0257730684    1.7746067114
C        0.7454099674    0.7197588405    0.1865087953
C        0.3726813071   -0.0398019887   -2.1824453863
N       -3.5995768595    0.3528305455    5.1596628563
N       -3.1446750096   -1.6792614549    3.2171746512
N       -0.0712110578   -0.0422867246   -0.7774563231
O       -1.6251042929    1.1381453143    1.6327209805
H       -4.5271660566   -1.1777504674    6.2504964245
H       -4.1363820029   -2.9246682990    4.5773277233
H       -2.6127661283    1.6090643168    3.8231704990
H       -2.2746710726   -1.9698505664    0.8924209024
H       -1.1830990143   -1.7592314069   -1.0808157017
H        1.7825147932    0.7821900080   -0.1568328686
H        0.7568164165    0.2292540485    1.1647264015
H        0.3580591885    1.7381182252    0.2913686550
H        0.1518616954    0.9293803532   -2.6409541850
H       -0.1388518641   -0.8145534961   -2.7623900752
H        1.4491094152   -0.2292864473   -2.2436836141
24   

C       -3.9779890107   -0.9011043512    5.3082463784
C       -3.6837815065   -1.9395613439    4.4035659464
C       -2.9952045404    0.5969939901    3.9035811305
C       -2.6863102100   -0.4327166583    2.9748122552
C       -1.6850483990   -1.1161754510    0.7567956178
C       -1.0075441760   -0.9746170104   -0.4359365312
C       -1.9688567400   -0.0803336883    1.7229003558
C        0.8101985213    0.5707815669    0.2341363438
C        0.3965184193   -0.0232756760   -2.1818587704
N       -3.6384948514    0.3773838010    5.0708158234
N       -3.0433135889   -1.7224000682    3.2413279122
N       -0.0246743276   -0.1127598080   -0.7730684033
O       -1.6758428569    1.0935346080    1.5188930677
H       -4.4965488244   -1.1451853584    6.2278204903
H       -3.9835959383   -2.9506982146    4.6526215692
H       -2.7066732877    1.6177141977    3.6805654502
H       -2.1603440433   -2.0736934457    0.9192530127
H       -1.2270526691   -1.7517569857   -1.1622924155
H        1.8552428551    0.5948655874   -0.0892395179
H        0.7787151475    0.0449232336    1.1933056109
H        0.4694340760    1.6014759379    0.3740850086
H        0.0951773494    0.9427274419   -2.5995831211
H       -0.0600922744   -0.8157901665   -2.7831841606
H        1.4831672340   -0.1257092206   -2.2644926822
24   

C       -3.9595285959   -0.8557439422    5.3282157379
C       -3.5980836836   -1.9146278603    4.4728543075
C       -3.0232238629    0.6301663449    3.8795299838
C       -2.6488243034   -0.4201020687    2.9993622565
C       -1.5889240426   -1.1393006235    0.8193245903
C       -1.0172925371   -0.9482983975   -0.4253713325
C       -1.9398225760   -0.0829904797    1.7389328737
C        0.8515556655    0.5268268154    0.2534521783
C        0.3847544212    0.0027116643   -2.1741543204
N       -3.6765107734    0.4270237181    5.0441766216
N       -2.9463743186   -1.7139310255    3.3138910690
N        0.0032157822   -0.1335389960   -0.7582619303
O       -1.7101517752    1.0949820771    1.4814893015
H       -4.4847944885   -1.0870760913    6.2472802422
H       -3.8549251373   -2.9281010468    4.7578484570
H       -2.7818484150    1.6539067471    3.6176713845
H       -2.0062717446   -2.1166380512    1.0186075069
H       -1.2944116418   -1.6897162383   -1.1691023088
H        1.8915617869    0.5605555363   -0.0850003120
H        0.8350650645   -0.0219969317    1.2000422601
H        0.5106519162    1.5526848348    0.4246812245
H        0.0571552462    0.9751194501   -2.5558679499
H       -0.0745225614   -0.7813965396   -2.7843643470
H        1.4702992240   -0.0788660355   -2.2879099679
24   

C       -3.9707494493   -0.8505168151    5.3386729283
C       -3.5333260146   -1.9131848443    4.5244052569
C       -3.0766848888    0.6402233707    3.8683753429
C       -2.6277467966   -0.4138381277    3.0288339161
C       -1.4873712244   -1.1348547852    0.8876276936
C       -1.0306995169   -0.9030799689   -0.4034627538
C       -1.9192635627   -0.0760583985    1.7687748210
C        0.8846153315    0.5202623787    0.2307875586
C        0.3630213847   -0.0056719762   -2.1889457530
N       -3.7467257243    0.4366586599    5.0233760600
N       -2.8638285288   -1.7119254052    3.3757073475
N        0.0270637522   -0.1544699043   -0.7631780163
O       -1.7523061738    1.1034343164    1.4713301112
H       -4.5075377303   -1.0825466007    6.2508799875
H       -3.7455708416   -2.9301053303    4.8328684405
H       -2.8838002172    1.6671309941    3.5800210323
H       -1.8351515834   -2.1317388665    1.1205513651
H       -1.3834140761   -1.6092148638   -1.1494711603
H        1.9095606870    0.6010473705   -0.1438928218
H        0.9230855675   -0.0466672422    1.1660787523
H        0.5104071935    1.5283314248    0.4346554493
H        0.0772346813    0.9923831614   -2.5366966159
H       -0.1629735214   -0.7477462416   -2.7978381531
H        1.4373935411   -0.1454437192   -2.3442163108
24   

C       -4.0150753285   -0.8741987013    5.3464481977
C       -3.4928844125   -1.9224649807    4.5640278347
C       -3.1631288647    0.6426089305    3.8776609285
C       -2.6304486542   -0.3968440077    3.0699035127
C       -1.3889933995   -1.0804451659    0.9687662336
C       -1.0378564453   -0.8233023927   -0.3585044527
C       -1.9153736038   -0.0392283091    1.8196601056
C        0.9334219974    0.5337664915    0.1897104543
C        0.3413675984   -0.0337906491   -2.2078858286
N       -3.8547248922    0.4187829911    5.0160909602
N       -2.8010147802   -1.7007240910    3.4324927717
N        0.0577879911   -0.1661547357   -0.7693851303
O       -1.8121154630    1.1408134557    1.4955988445
H       -4.5663704497   -1.1226818166    6.2455770881
H       -3.6570878574   -2.9450931015    4.8827937860
H       -3.0214615219    1.6740033918    3.5759046206
H       -1.6556601880   -2.0951817542    1.2296395766
H       -1.4863736047   -1.4871921685   -1.0917263490
H        1.9240848001    0.6946202510   -0.2465466549
H        1.0675175063   -0.0597024460    1.0995397791
H        0.5085955648    1.5075727805    0.4525485889
H        0.1340378417    0.9898787486   -2.5363715724
H       -0.2791020762   -0.7167850478   -2.7966419266
H        1.3902559262   -0.2711222554   -2.4112715024
24   

C       -4.0763376473   -0.9510850979    5.3574149694
C       -3.4489324255   -1.9579055647    4.5981673095
C       -3.3017032460    0.6225865347    3.9054898619
C       -2.6648758264   -0.3748516984    3.1210655059
C       -1.3085930983   -0.9621513571    1.0583168571
C       -1.0323479562   -0.7064833314   -0.2967186934
C       -1.9521130029    0.0311661123    1.8850022836
C        1.0140373602    0.5438888479    0.1305317686
C        0.3156394278   -0.0753270274   -2.2292639283
N       -4.0076461455    0.3493716253    5.0241974023
N       -2.7414709833   -1.6864418421    3.4873310221
N        0.0921035585   -0.1630569018   -0.7768243905
O       -1.9406215618    1.2099629582    1.5408567047
H       -4.6349022716   -1.2390684006    6.2401270166
H       -3.5430176442   -2.9892636374    4.9172533263
H       -3.2330146140    1.6603247042    3.6000778759
H       -1.4573308675   -1.9930690659    1.3477894769
H       -1.6009190920   -1.3061220063   -1.0015148516
H        1.9519239315    0.7778488261   -0.3826798311
H        1.2550266252   -0.0802300901    0.9968882464
H        0.5629539440    1.4802389015    0.4746273542
H        0.2033257346    0.9612635767   -2.5633520275
H       -0.4037340367   -0.6925290160   -2.7767234502
H        1.3216754284   -0.4269493823   -2.4785265453
24   

C       -3.8459787860   -0.9261528957    5.3568842124
C       -2.9461017841   -1.7534117344    4.6571568698
C       -4.0507559146    0.4018348582    3.5183200327
C       -3.1457245986   -0.4164735668    2.7930423278
C       -1.8982447211   -0.8740691575    0.6325614903
C       -1.3021433039   -0.3520241987   -0.5107160412
C       -2.8067528553   -0.0504125972    1.3965498142
C        0.9575114117   -0.1697264807    0.4189717175
C        0.4000272201    0.7270866403   -1.8943544082
N       -4.4092161713    0.1589753169    4.7978702304
N       -2.5895749101   -1.5132693041    3.3831559521
N       -0.0270937566    0.0595036147   -0.6529545642
O       -3.2925902504    0.9538593558    0.8818835238
H       -4.0896856823   -1.1761046913    6.3826754490
H       -2.5236179542   -2.6134453690    5.1633832884
H       -4.4828941056    1.2702207144    3.0345503480
H       -1.3954600452   -1.6725313877    1.1599928418
H       -2.0036273963    0.0846099674   -1.2176847231
H        1.2272103568   -1.2296902359    0.4638336390
H        0.5511867167    0.1420823567    1.3865465766
H        1.8665224029    0.4119466802    0.2361586608
H        1.0313321579    1.5910903794   -1.6647527361
H       -0.4628971778    1.0854288253   -2.4646640740
H        0.9633384300    0.0270402928   -2.5199455420
24   

C       -3.9507365809   -0.9757952247    5.3483194406
C       -2.9333868822   -1.7095087439    4.7075943018
C       -4.2201629821    0.2848868566    3.4712418823
C       -3.1971733203   -0.4395385246    2.8051846438
C       -1.7983620649   -0.7910668878    0.7179543541
C       -1.2554028616   -0.2463725925   -0.4298881545
C       -2.8383411926   -0.0645586309    1.4161157633
C        1.0814936368   -0.2561709838    0.3249284149
C        0.4147058011    0.7616833090   -1.9076458624
N       -4.6063728089    0.0277480072    4.7398401622
N       -2.5487997785   -1.4550302552    3.4445575254
N        0.0357580774    0.0866061450   -0.6547459977
O       -3.4149839548    0.8648164926    0.8559472414
H       -4.2107717584   -1.2318316249    6.3685850069
H       -2.4408587366   -2.5067688872    5.2518266386
H       -4.7243085452    1.0898867022    2.9490460976
H       -1.2344566344   -1.5259628906    1.2749437489
H       -1.9758539899    0.2301664586   -1.0908913727
H        1.2637328418   -1.3355990584    0.3203757842
H        0.7821877940    0.0568937829    1.3303387183
H        2.0186769432    0.2540076392    0.0810983403
H        1.1363546490    1.5597992058   -1.7076690795
H       -0.4583406448    1.2133663173   -2.3894122443
H        0.8602198061    0.0404673282   -2.6005635346
24   

C       -4.0268564614   -1.0458435522    5.3525522323
C       -2.9124183152   -1.6762225138    4.7653990778
C       -4.3376555945    0.1690377873    3.4521004149
C       -3.2172616407   -0.4515874028    2.8398221529
C       -1.6902465153   -0.6684362830    0.8245126522
C       -1.2055934150   -0.1196954082   -0.3397044608
C       -2.8377482657   -0.0525357718    1.4631490945
C        1.1808695387   -0.3083576886    0.2266166580
C        0.4148164110    0.7712101756   -1.9435941633
N       -4.7526160411   -0.1179151361    4.7050349731
N       -2.4984563830   -1.3914911275    3.5181057147
N        0.0877957243    0.1209706189   -0.6632451466
O       -3.4875674275    0.8033237812    0.8667325934
H       -4.3057906370   -1.3208009053    6.3628507417
H       -2.3674321445   -2.4164777470    5.3393076718
H       -4.8968321792    0.9154606330    2.8997553223
H       -1.0792438386   -1.3488315379    1.4005046680
H       -1.9440014519    0.3756490993   -0.9662257324
H        1.2617422568   -1.4001195284    0.2255604834
H        1.0022303942    0.0416873956    1.2483470660
H        2.1358872336    0.1085086385   -0.1083690005
H        1.2183881903    1.5014308884   -1.8064272634
H       -0.4537144841    1.3019132172   -2.3465299944
H        0.7336539211    0.0199443163   -2.6734775453
24   

C       -4.1020043797   -1.1253109555    5.3346093158
C       -2.9029326166   -1.6437271508    4.8076848633
C       -4.4357222206    0.0490574327    3.4128250013
C       -3.2305479347   -0.4593803620    2.8608534410
C       -1.5919901629   -0.5338276721    0.9257402065
C       -1.1515387412   -0.0024913018   -0.2593363654
C       -2.8262820690   -0.0314188366    1.4999832321
C        1.2482033497   -0.3905732581    0.1312684669
C        0.4143605582    0.7300517544   -1.9916447467
N       -4.8823135092   -0.2747096251    4.6457080324
N       -2.4571797119   -1.3220110362    3.5804689502
N        0.1306334915    0.1237472106   -0.6797407314
O       -3.5314345322    0.7502101050    0.8655036194
H       -4.4028852145   -1.4247607649    6.3315572740
H       -2.3173657878   -2.3258366858    5.4128097145
H       -5.0379547102    0.7350029885    2.8282613196
H       -0.9497719306   -1.1671926681    1.5208381129
H       -1.8986696597    0.5063982659   -0.8641400889
H        1.2195355987   -1.4845211034    0.1631078873
H        1.1940220245    0.0045910127    1.1506999161
H        2.2076457280   -0.0841647230   -0.2972755009
H        1.2818712672    1.3940026005   -1.9253381732
H       -0.4357867345    1.3250835966   -2.3403082029
H        0.6175133384   -0.0530765166   -2.7293516386
24   

C       -4.2876186254   -1.1537678216    5.2364032235
C       -4.3654778756   -0.4344071837    4.0278015374
C       -2.1669721839   -1.7966580125    4.7140628177
C       -2.2217166417   -1.0788095128    3.4903036633
C       -1.0817599591   -0.3640804278    1.3403986046
C       -0.0069655727   -0.4473399251    0.4962869455
C       -1.0405879459   -1.0945406155    2.5940329725
C       -1.1367493284    0.4858144012   -1.4835108782
C        1.3048885468   -0.2126532265   -1.5555608951
N       -3.1902227099   -1.8425788444    5.5944129146
N       -3.3474455911   -0.3880136935    3.1504081324
N        0.0416192895   -0.0866183743   -0.8087986407
O       -0.0342095687   -1.7227769075    2.9156971836
H       -5.1450301596   -1.1496527650    5.8989236220
H       -5.2785093517    0.1012035740    3.7958247413
H       -1.2648794115   -2.3407845591    4.9691802586
H       -1.9844559910    0.1533915218    1.0490636689
H        0.8897441040   -0.9188504156    0.8916677298
H       -1.3798619020    1.4633962868   -1.0547381218
H       -1.9979425524   -0.1818836971   -1.3794333295
H       -0.9413693507    0.6194031523   -2.5521848331
H        1.1161368510   -0.6027129259   -2.5605939313
H        1.9899771759   -0.9028522772   -1.0528743747
H        1.7914910438    0.7648742191   -1.6354841016
24   

C       -4.2752387083   -1.1564974102    5.2388901591
C       -4.3921309156   -0.5143978466    3.9905785316
C       -2.1137192186   -1.6875923994    4.7603167676
C       -2.2075988415   -1.0471696863    3.4965839650
C       -1.1081744482   -0.3966032440    1.3068941756
C       -0.0100437265   -0.4225271490    0.4893267757
C       -1.0238906758   -1.0417877648    2.6034543446
C       -1.0194924828    0.8580500014   -1.3553288350
C        1.3436788424   -0.0572049894   -1.5146171239
N       -3.1373162803   -1.7495531822    5.6392780176
N       -3.3736428852   -0.4517056088    3.1147355356
N        0.1003436170    0.1199367658   -0.7447931056
O        0.0175923113   -1.5871847980    2.9624714011
H       -5.1355403627   -1.1711577268    5.8975027630
H       -5.3368408592   -0.0544714141    3.7254223079
H       -1.1799691666   -2.1565811662    5.0485642735
H       -2.0258349797    0.0857387180    1.0025765120
H        0.8708527743   -0.9387979728    0.8636132393
H       -1.3293236314    1.6845820338   -0.7078742222
H       -1.8686147632    0.1873975897   -1.5221931691
H       -0.7216729704    1.2788266384   -2.3209430063
H        1.1848550973   -0.7785423414   -2.3227137090
H        2.1525893236   -0.4258530290   -0.8756835295
H        1.6643233372    0.8978153772   -1.9425504736
