27   

C        2.4218630809    1.0561478822   -0.4338229512
C        1.4078148847    0.2197831730   -0.8840957142
C        0.6219182864   -4.1138094624   -1.5088659387
C        2.2408579219    1.7965747778    0.7346657837
C        1.5952384577   -2.6943461989   -0.0816760992
C        0.4730904664   -2.8253622324   -0.8622485340
C        0.2378049249    0.1304783323   -0.1225655211
C        0.1120766579    0.9602341567    1.0300226511
C        1.8126762754   -4.6352736608   -1.0936137417
C       -0.7348448637   -1.9778032921   -1.0471709078
C       -2.1548035863   -0.1441812295   -0.1610624719
C       -2.1376646314    0.1304222357    1.3461644141
N        1.1098545203    1.7547768009    1.4462957097
N       -0.8471064255   -0.6876729135   -0.5113748354
O       -1.7234988655   -2.4605738505   -1.6018475186
O        2.4283829618   -3.7759051801   -0.2233272922
O       -1.0615794745    0.9974102857    1.7591626844
Br       2.5234504537   -6.3213010295   -1.6350961447
H        3.3519125173    1.1485441981   -0.9815649330
H        1.5263256778   -0.3402859338   -1.8065418377
H       -0.0822825846   -4.5785714761   -2.1921501071
H        3.0431681725    2.4404353569    1.0762362863
H        1.8078619304   -1.8730273958    0.5918844977
H       -2.9709409025   -0.8355548215   -0.3940624763
H       -2.3332668048    0.7840442982   -0.7138280351
H       -3.0917735716    0.5814314466    1.6357078454
H       -2.0474117541   -0.8205078211    1.8810853002
27   

C        2.4068103929    0.9626555228   -0.4197328301
C        1.3826785861    0.1264289627   -0.8455129044
C        0.6892854961   -4.0410645593   -1.6359373909
C        2.2301485431    1.7489510601    0.7182775527
C        1.4512520578   -2.7821613440    0.0481165459
C        0.4406688394   -2.8329804391   -0.8773501237
C        0.2034716298    0.0842589317   -0.0918296593
C        0.0871939704    0.9551849319    1.0315079882
C        1.8414210956   -4.5866612799   -1.1476201664
C       -0.7867114330   -2.0086418702   -1.0270931651
C       -2.1967284856   -0.1799614840   -0.1039767640
C       -2.1620339934    0.1462324528    1.3917551105
N        1.0946219459    1.7500455986    1.4237070062
N       -0.8935522901   -0.7336442743   -0.4556427009
O       -1.7945065342   -2.5112702930   -1.5253022508
O        2.3310833853   -3.8218665442   -0.1218881112
O       -1.0850991174    1.0313710843    1.7592562562
Br       2.6543426604   -6.1909282531   -1.7851846336
H        3.3415543156    1.0194499249   -0.9644064758
H        1.5034814254   -0.4655747402   -1.7473234489
H        0.0741216994   -4.4401932865   -2.4363611606
H        3.0404001029    2.3929801814    1.0402335522
H        1.5449138930   -2.0427035281    0.8353047074
H       -3.0146699266   -0.8800457347   -0.3017174101
H       -2.3841680886    0.7289750522   -0.6851759582
H       -3.1141710645    0.6037275254    1.6774517181
H       -2.0606806810   -0.7852040151    1.9579584955
27   

C        2.3765559535    0.9232965717   -0.4279346362
C        1.3463724247    0.0836142851   -0.8306360692
C        0.7670978263   -3.9155852730   -1.7729263201
C        2.2088730597    1.7358148936    0.6920868473
C        1.3265356065   -2.8657767764    0.1195690725
C        0.4210063895   -2.8098804713   -0.9054660756
C        0.1676808125    0.0639667590   -0.0731017593
C        0.0635931355    0.9591035012    1.0328939344
C        1.8852630566   -4.4958883322   -1.2463636303
C       -0.8359345832   -2.0217124363   -1.0067229410
C       -2.2368485961   -0.2009554339   -0.0471131910
C       -2.1789339997    0.1567796629    1.4398535611
N        1.0765774324    1.7581791095    1.4020275449
N       -0.9380666892   -0.7563842120   -0.4132995682
O       -1.8608175294   -2.5567581415   -1.4279679523
O        2.2536763057   -3.8553890409   -0.0925267657
O       -1.1018142958    1.0557641065    1.7688023088
Br       2.8009639099   -5.9944789681   -1.9924368662
H        3.3091640572    0.9623017498   -0.9778355698
H        1.4654029851   -0.5243782326   -1.7216344840
H        0.2377103647   -4.2281696310   -2.6673523052
H        3.0238548782    2.3829629800    0.9953001231
H        1.3084927427   -2.2327235231    0.9998858522
H       -3.0556663013   -0.9075534572   -0.2154688477
H       -2.4386553437    0.6952684770   -0.6431349983
H       -3.1287039096    0.6153340480    1.7316041935
H       -2.0622151379   -0.7616592041    2.0238896516
27   

C        2.3821188909    0.8433255625   -0.4034023074
C        1.3405296022    0.0034231886   -0.7741860140
C        0.8380928208   -3.8209549733   -1.7766485285
C        2.2249755648    1.7018687624    0.6825472562
C        1.1914135193   -3.0201275735    0.2780025072
C        0.3974508850   -2.8307478625   -0.8175879479
C        0.1589652333    0.0292623776   -0.0194562350
C        0.0688289239    0.9688085496    1.0510928741
C        1.9119058283   -4.4562999443   -1.2217471085
C       -0.8776963695   -2.0641840818   -0.8981090442
C       -2.2516359712   -0.2032170557    0.0267370633
C       -2.1811360356    0.2116761769    1.4974684605
N        1.0924484931    1.7684287456    1.3889319368
N       -0.9616540832   -0.7865064518   -0.3286383969
O       -1.9176971618   -2.6248877223   -1.2379990768
O        2.1553780031   -3.9662508646    0.0341846880
O       -1.0939071544    1.1123290690    1.7833293448
Br       2.9241263818   -5.8398354922   -2.0595894636
H        3.3155917374    0.8467782371   -0.9531798489
H        1.4564316855   -0.6357792407   -1.6429529709
H        0.4016153775   -4.0236221145   -2.7492339458
H        3.0487698078    2.3492689873    0.9603090805
H        1.0669366970   -2.5080625362    1.2258978439
H       -3.0800548245   -0.9055664251   -0.1087256597
H       -2.4479640352    0.6716287442   -0.6020463695
H       -3.1245217203    0.6911334228    1.7760059490
H       -2.0694523988   -0.6840140518    2.1165916799
27   

C        2.3832336047    0.7857009367   -0.4436721250
C        1.3210642701   -0.0427863472   -0.7803011798
C        0.8592747953   -3.6855169519   -1.8032543865
C        2.2560120039    1.6751578835    0.6208601669
C        1.0684362295   -3.1764234084    0.3602748619
C        0.3463587292   -2.8394739172   -0.7468406872
C        0.1489245528    0.0257605302   -0.0135594825
C        0.0911713069    0.9942344621    1.0338122381
C        1.9067555027   -4.3834462221   -1.2736118782
C       -0.9420306558   -2.0837557990   -0.7849409179
C       -2.2647828280   -0.1529028852    0.0703298229
C       -2.1677392186    0.2955248959    1.5288786285
N        1.1337404483    1.7827784034    1.3380922016
N       -0.9925760970   -0.7751233583   -0.2852760703
O       -2.0006725493   -2.6673462019   -1.0039991188
O        2.0620999496   -4.0714638158    0.0510880822
O       -1.0584675660    1.1799214893    1.7774917192
Br       2.9939333600   -5.6269646520   -2.2287509769
H        3.3100090578    0.7560022333   -1.0037630662
H        1.4153748187   -0.7047343135   -1.6339704333
H        0.4892677391   -3.7558132121   -2.8207468281
H        3.0954730584    2.3132260675    0.8719468521
H        0.8724564982   -2.8031432563    1.3594221304
H       -3.1131330495   -0.8353277478   -0.0405885755
H       -2.4467411471    0.7113896793   -0.5771258255
H       -3.0972757247    0.8019248958    1.8062585795
H       -2.0672144466   -0.5869854102    2.1684628785
27   

C        2.4341363381    0.6686139319   -0.5281907053
C        1.3380741678   -0.1260158923   -0.8379269874
C        0.8585208657   -3.5240839720   -1.8348257312
C        2.3497120010    1.5870350432    0.5161150043
C        0.9707426780   -3.3846212515    0.3945674313
C        0.2776698084   -2.8912907385   -0.6699280488
C        0.1765701360    0.0068001333   -0.0661763984
C        0.1644941083    0.9999994650    0.9600935595
C        1.9024411324   -4.2812721474   -1.3846796115
C       -1.0047449091   -2.1208092699   -0.6272724720
C       -2.2369946418   -0.0597890826    0.0288677879
C       -2.1216000192    0.4106512179    1.4785986995
N        1.2384795873    1.7548978570    1.2385952810
N       -0.9968572322   -0.7554069205   -0.3061275261
O       -2.0853172415   -2.7023094449   -0.6733534962
O        1.9969011275   -4.1972273116   -0.0200738356
O       -0.9708282216    1.2459477349    1.7092251870
Br       3.0613141860   -5.3194765181   -2.4890166826
H        3.3548690600    0.5900148975   -1.0932528180
H        1.3971159145   -0.8113189424   -1.6750762285
H        0.5345636330   -3.4247641308   -2.8653940655
H        3.2147140370    2.1981280130    0.7466345469
H        0.7356388502   -3.1767111860    1.4325355705
H       -3.1223049311   -0.6940309161   -0.0787789724
H       -2.3684651820    0.8005590969   -0.6357308710
H       -3.0259390799    0.9667869301    1.7437424723
H       -2.0648654885   -0.4631446272    2.1354803270
27   

C        2.1494521086    1.6597363538   -0.0461768501
C        1.4687881909    0.4785148578    0.2179220565
C        1.1563724680   -1.5060016499   -2.2092266219
C        1.4417232395    2.7884328792   -0.4544988022
C        2.0106590930   -2.8991593359   -0.6836494761
C        0.8692632937   -2.2134426087   -0.9767355599
C        0.0799826450    0.4524642775    0.0367041537
C       -0.5695949681    1.6652871854   -0.3420604514
C        2.4181549841   -1.8680865920   -2.5834070712
C       -0.3122911924   -2.0128148807   -0.0843297102
C       -2.0516895510   -0.4288732323    0.7479111560
C       -2.6994148928    0.5256333206   -0.2561252091
N        0.1122698455    2.7945418742   -0.5900188391
N       -0.7006532848   -0.7102101871    0.2695937359
O       -1.1123461569   -2.9198301643    0.1307817775
O        2.9593518821   -2.7244156770   -1.6604430338
O       -1.9452359385    1.7375171089   -0.4543363208
Br       3.3113609140   -1.2626193846   -4.1564567570
H        3.2253747501    1.7183870529    0.0646329288
H        2.0172589832   -0.3893228269    0.5633314502
H        0.4982682971   -0.8282139804   -2.7430616022
H        1.9879933591    3.7015003287   -0.6612520852
H        2.1601056055   -3.4884237549    0.2143471957
H       -2.0034351658    0.0407009660    1.7360141904
H       -2.6663246827   -1.3293518115    0.8414663737
H       -2.8071632326    0.0133427169   -1.2174907678
H       -3.7026360687    0.7832100484    0.0966919409
27   

C        2.0335160341    1.7441432315   -0.2710551186
C        1.3942853315    0.5353937020   -0.0295497636
C        0.9304993041   -1.2710441313   -2.4566071838
C        1.2772790359    2.8909468287   -0.5036019494
C        1.7751605004   -2.9532407808   -1.2477093795
C        0.6989997579   -2.1155184366   -1.2998871418
C       -0.0065928835    0.5017866718   -0.0569026118
C       -0.7018606668    1.7313861688   -0.2582001545
C        2.0922613047   -1.7017777317   -3.0293586781
C       -0.3403489719   -1.9698123172   -0.2406036901
C       -2.0440372015   -0.4750450910    0.8022020272
C       -2.8000006751    0.5545976720   -0.0396945811
N       -0.0590496606    2.8872780723   -0.4879516707
N       -0.7461033471   -0.6895940313    0.1688178844
O       -1.0294220677   -2.9255795242    0.1109736875
O        2.6261165066   -2.7337047901   -2.3027159477
O       -2.0812654466    1.7919307552   -0.2071615511
Br       2.8718338623   -0.9692907603   -4.6088437150
H        3.1147514793    1.8096100556   -0.2778276709
H        1.9843314005   -0.3498848902    0.1772676212
H        0.3019266546   -0.4616356323   -2.8136201772
H        1.7912660620    3.8257595082   -0.6955574649
H        1.9469355029   -3.6845745047   -0.4654929656
H       -1.9010344064   -0.0972300047    1.8200305225
H       -2.6382301254   -1.3916838992    0.8674172689
H       -3.0037938611    0.1281082458   -1.0269811867
H       -3.7628742234    0.7631404309    0.4364345591
27   

C        1.9222623573    2.2451666568    0.4963286583
C        1.4824999200    0.9288019173    0.5392277169
C        1.9239586422   -0.7156818176   -1.9505395922
C        1.0283709323    3.2613917688    0.1649942745
C        2.6322404356   -2.5340160297   -0.8506429574
C        1.5436619145   -1.7172730717   -0.9719578377
C        0.1460950875    0.6591673612    0.2149269279
C       -0.7111974281    1.7638200483   -0.0672397315
C        3.1873933750   -1.0314394169   -2.3603897220
C        0.3290972189   -1.8118124319   -0.1172267022
C       -1.8020211307   -0.7248328224    0.5818747258
C       -2.5552659561    0.2296155581   -0.3477839171
N       -0.2604123245    3.0279026568   -0.1013962613
N       -0.3882710252   -0.6559005842    0.2263059765
O       -0.1856667723   -2.9017984157    0.1307515879
O        3.6405021729   -2.1416211323   -1.6964828536
O       -2.0606899268    1.5820628558   -0.3010268238
Br       4.1860373911   -0.0668420342   -3.6686817222
H        2.9522010828    2.4946384345    0.7208621736
H        2.1720213227    0.1408050997    0.8210099128
H        1.3246601602    0.1148509250   -2.3094939241
H        1.3884683614    4.2831860273    0.1305127154
H        2.6977760824   -3.3741438737   -0.1677050991
H       -1.9372911942   -0.4204483964    1.6250323024
H       -2.2128296968   -1.7330840819    0.4701667424
H       -2.4776291563   -0.1381472005   -1.3758476291
H       -3.6148611323    0.2277756481   -0.0746683846
27   

C        2.1434832357    1.7536859695    0.3710715484
C        1.5049548498    0.5400762843    0.5899533030
C        2.0240087919   -1.6136267953   -1.4321635194
C        1.4599571244    2.7890806080   -0.2639437785
C        2.0959533606   -3.4443754315   -0.1382302824
C        1.3037925951   -2.3655411756   -0.4213422423
C        0.1898122376    0.3860861759    0.1332666212
C       -0.4509323847    1.5119198951   -0.4632449382
C        3.1746052334   -2.3049588467   -1.6831567740
C        0.0222769917   -2.1031460243    0.2842891723
C       -1.9742137658   -0.6297333171    0.4836174610
C       -2.4681195216    0.2045504743   -0.7015770760
N        0.1897246357    2.6744249518   -0.6641393088
N       -0.5374005921   -0.8176788794    0.3143252596
O       -0.6524201854   -3.0356222783    0.7230644259
O        3.2404965177   -3.4261635977   -0.8972162742
O       -1.7782016769    1.4617220417   -0.8440600728
Br       4.5020541030   -1.7927450348   -2.9540890450
H        3.1665550306    1.9090713560    0.6913499286
H        2.0257076231   -0.2601925917    1.1047696110
H        1.7131238871   -0.6971905591   -1.9231593310
H        1.9739536855    3.7284076069   -0.4324410715
H        1.8573941129   -4.2102637642    0.5920587202
H       -2.1721060316   -0.1047524355    1.4239854663
H       -2.5185452966   -1.5790596223    0.5064729687
H       -2.3397599833   -0.3728522338   -1.6226702372
H       -3.5382733246    0.3968877326   -0.5784511613
27   

C        2.0251883472    2.1074366719    0.6403556016
C        1.4949574764    0.8329734177    0.7935368374
C        2.2466135275   -1.2019783932   -1.2888409200
C        1.2551905152    3.1100621315    0.0528664681
C        2.2635820606   -3.2101070061   -0.2842429381
C        1.5226408873   -2.0611816056   -0.3701565069
C        0.1999609396    0.5891415641    0.3208723711
C       -0.5360451288    1.6829467169   -0.2228166869
C        3.3589348741   -1.8962067394   -1.6714675074
C        0.2394416862   -1.9101261312    0.3632556101
C       -1.8683295307   -0.6203081580    0.6260615733
C       -2.4358101557    0.2210961415   -0.5212951363
N        0.0011618183    2.9052488570   -0.3622399563
N       -0.4216621794   -0.6773595293    0.4486801489
O       -0.3231616892   -2.8980220499    0.8392607729
O        3.3926966651   -3.1234253129   -1.0614305350
O       -1.8548649018    1.5370772212   -0.6086888736
Br       4.6733242206   -1.2616423396   -2.9002246004
H        3.0291521210    2.3357515606    0.9768904394
H        2.0798430283    0.0545919623    1.2722928148
H        1.9639010288   -0.2169858252   -1.6449650124
H        1.6847533520    4.0983828046   -0.0637471656
H        1.9992497519   -4.0751270560    0.3148570774
H       -2.1076351818   -0.1579003043    1.5893106105
H       -2.3276119594   -1.6137579236    0.6043059133
H       -2.2629836885   -0.3018227664   -1.4673595459
H       -3.5179746118    0.3166748455   -0.3899026178
27   

C        2.3269001534    1.8637031768   -0.5031177961
C        1.5168544717    0.8036655446   -0.8904863153
C        2.1955532703   -1.9001493500    0.2945080624
C        1.9075442530    2.7173575183    0.5168667354
C        1.3887264879   -3.6127286648   -0.9143624988
C        1.0961087892   -2.3214185667   -0.5555801647
C        0.3066802838    0.6126878722   -0.2158430155
C       -0.0698959659    1.5602820316    0.7807239569
C        3.0664616515   -2.9511648307    0.3486492244
C       -0.2114801005   -1.7240833468   -0.9375628832
C       -1.9943918095   -0.0900272141   -0.3857913656
C       -2.1661362606    0.3910501591    1.0590342782
N        0.7336577612    2.5735739506    1.1400837317
N       -0.5865315684   -0.4271868202   -0.5636069683
O       -1.0283310265   -2.3917337384   -1.5756158390
O        2.5975517100   -4.0037425618   -0.3931798525
O       -1.3021742235    1.4925628755    1.4029439580
Br       4.6929710107   -2.9710116090    1.3459736564
H        3.2793605784    2.0413418386   -0.9873465709
H        1.8215860946    0.1465362890   -1.6986158111
H        2.3137143624   -0.9657461228    0.8314472090
H        2.5524613502    3.5374035992    0.8109434334
H        0.7548750290   -4.2498391300   -1.5222472680
H       -2.6509844008   -0.9485256185   -0.5601082700
H       -2.2801726015    0.7016077868   -1.0861214911
H       -3.2070488600    0.6921615403    1.2119728548
H       -1.9603903111   -0.4411598057    1.7399174707
27   

C        2.3051290131    1.7854012748   -0.4837464040
C        1.4830776288    0.7243078362   -0.8403341060
C        2.0999932692   -1.9431186146    0.4036544081
C        1.8928515162    2.6765311810    0.5057884510
C        1.4925105914   -3.5225807487   -1.0722985548
C        1.0552101383   -2.3484953684   -0.5185140411
C        0.2665800411    0.5680955041   -0.1653039795
C       -0.0999842233    1.5524123458    0.7993226323
C        3.0759220243   -2.8954122599    0.3241481937
C       -0.2666874435   -1.7698734242   -0.8720753403
C       -2.0421899174   -0.1293628950   -0.2961751898
C       -2.2010503258    0.4071956213    1.1297538557
N        0.7146677242    2.5675635490    1.1277566495
N       -0.6371874571   -0.4778205327   -0.4753653159
O       -1.1103521121   -2.4572747123   -1.4506326085
O        2.7277701528   -3.8657375314   -0.5795308200
O       -1.3320615647    1.5185698342    1.4240517790
Br       4.6894309392   -2.8932441884    1.3423412859
H        3.2621398721    1.9343041858   -0.9688078900
H        1.7869530666    0.0416562578   -1.6269801079
H        2.1114117024   -1.0810710224    1.0622249598
H        2.5475786528    3.4970189418    0.7760334585
H        0.9418713246   -4.1070696302   -1.8018330366
H       -2.7029956739   -0.9916061035   -0.4312111441
H       -2.3318471693    0.6361900644   -1.0234745835
H       -3.2398896605    0.7172207322    1.2786824333
H       -1.9919457763   -0.3988896076    1.8402789140
27   

C        2.3664113621    1.4321814497   -0.3833461829
C        1.4600325654    0.4468682585   -0.7522707975
C        1.8626476839   -2.2559781511    0.4850377558
C        2.0365162062    2.3292521805    0.6310085555
C        1.3228314152   -3.6176222767   -1.2136926912
C        0.8356822240   -2.5612609668   -0.4937184315
C        0.2425431269    0.3686553024   -0.0641578224
C       -0.0339934138    1.3558136585    0.9272776084
C        2.8691054748   -3.1569533609    0.2847789669
C       -0.4657813573   -1.9123995073   -0.8005690969
C       -2.1132515792   -0.1591551458   -0.1613850557
C       -2.2063167293    0.3588016527    1.2765708114
N        0.8606075584    2.2977651649    1.2658592582
N       -0.7405895082   -0.6047164776   -0.3751371638
O       -1.3866784194   -2.5618310757   -1.2979353571
O        2.5606346829   -3.9960972327   -0.7543756543
O       -1.2547069372    1.3995927575    1.5731252086
Br       4.4757835668   -3.2462339483    1.3096529719
H        3.3270482549    1.5164860809   -0.8767714706
H        1.7035593558   -0.2382761389   -1.5572030733
H        1.8409931365   -1.4867436146    1.2501472871
H        2.7568993875    3.0891694208    0.9111753894
H        0.8054767254   -4.0911712378   -2.0412873877
H       -2.8394299189   -0.9662559316   -0.3002947412
H       -2.3586463954    0.6406644738   -0.8678746128
H       -3.2172237930    0.7392655716    1.4517783485
H       -2.0422176776   -0.4743348693    1.9673939545
27   

C        2.2998693331    1.6909880267   -0.3253050730
C        1.4936657655    0.6049365185   -0.6391118675
C        1.9220385973   -1.9121677530    0.9713409499
C        1.8303355402    2.6700824623    0.5477879627
C        1.8319544537   -3.2759625070   -0.8033629504
C        1.0768531548   -2.3677677302   -0.1165150068
C        0.2313302871    0.5126527010   -0.0373613081
C       -0.1878180810    1.5827240350    0.8077798169
C        3.0937641661   -2.6056872872    0.8710988010
C       -0.2577527185   -1.8825736840   -0.5610110395
C       -2.0701091718   -0.2053175258   -0.2245505560
C       -2.3050235375    0.4665316273    1.1304680363
N        0.6116330860    2.6224357525    1.0944874872
N       -0.6572592863   -0.5639296777   -0.2960790171
O       -1.1085647162   -2.6669856154   -0.9798521902
O        3.0595666986   -3.4454916636   -0.2115603174
O       -1.4547931510    1.6071309178    1.3581385562
Br       4.5728364831   -2.4324945423    2.0634540773
H        3.2898402920    1.7903709036   -0.7536852314
H        1.8496344162   -0.1435663683   -1.3382062024
H        1.6764893941   -1.1790595817    1.7329512504
H        2.4738251843    3.5089855183    0.7867177386
H        1.5105896224   -3.7868195605   -1.7046181248
H       -2.7272649335   -1.0761998118   -0.3114747075
H       -2.3187161077    0.4860687613   -1.0365224821
H       -3.3505913317    0.7832271892    1.1924658328
H       -2.1328589583   -0.2650493216    1.9262781494
27   

C        2.3601790132    1.3014479305    0.2742753585
C        1.4775841649    0.2897891676   -0.0801183239
C        1.1070387854   -1.9688598220    1.9518487522
C        1.8788366984    2.4512287792    0.8967364086
C        1.4097770378   -3.4085873868    0.2666026006
C        0.5313179284   -2.4659790496    0.7164593656
C        0.1198093836    0.4470212502    0.2297925469
C       -0.2925544492    1.6753214457    0.8273284495
C        2.2492622160   -2.6845660323    2.1671253728
C       -0.6277457944   -1.9230713458   -0.0486464584
C       -2.1784584735    0.0039813602   -0.3744275979
C       -2.5776786158    0.8927364471    0.8050513753
N        0.5817639470    2.6386294580    1.1585066116
N       -0.8539453800   -0.5378781032   -0.0847866524
O       -1.5308834224   -2.6584041054   -0.4430041028
O        2.4527354736   -3.5735646522    1.1443145520
O       -1.6254904198    1.9389020898    1.0780102372
Br       3.4064087883   -2.4746447609    3.6691195651
H        3.4201763990    1.2112222998    0.0701524814
H        1.8505489965   -0.5920728641   -0.5879294134
H        0.7082195095   -1.1904224570    2.5942532756
H        2.5812884831    3.2295944500    1.1717137260
H        1.3086735261   -3.9448470521   -0.6706381988
H       -2.9336688176   -0.7766745413   -0.5077583610
H       -2.1431433273    0.5946106685   -1.2958819397
H       -3.5522960358    1.3435552169    0.5948241645
H       -2.6858360280    0.2713553211    1.6996751800
27   

C        2.4176760571    1.2801814086   -0.1550685995
C        1.4779319416    0.3255493424   -0.5210453323
C        1.3615821264   -2.2501406793    1.2853514927
C        2.0578071483    2.3046057501    0.7182569232
C        1.5458415046   -3.2071001642   -0.7267317654
C        0.6610800771   -2.5118927374    0.0432518535
C        0.1917596891    0.4092293064    0.0275444457
C       -0.1032865104    1.5152552647    0.8795473741
C        2.5807139949   -2.8553338365    1.1820964690
C       -0.6336252736   -1.9108334344   -0.3984702757
C       -2.1760625064    0.0464416223   -0.2672317474
C       -2.3746587066    0.7163883440    1.0930759634
N        0.8237449469    2.4255384738    1.2166042622
N       -0.8322814596   -0.5257131177   -0.2764309605
O       -1.6230648122   -2.6072845595   -0.6105624752
O        2.7126684315   -3.4501346482   -0.0454472253
O       -1.3739804213    1.7110011580    1.3868123747
Br       3.9189647249   -2.8639357111    2.5414774500
H        3.4285218692    1.2427268549   -0.5425140878
H        1.7512215493   -0.4533128871   -1.2224836670
H        0.9922236927   -1.6924761078    2.1397930113
H        2.8040020899    3.0393064853    0.9979991425
H        1.3627811497   -3.5099667368   -1.7517826305
H       -2.9588636375   -0.7024875748   -0.4212265403
H       -2.2675725555    0.7874257610   -1.0683253145
H       -3.3625040734    1.1864264619    1.1153875471
H       -2.3540057735   -0.0496780267    1.8747431845
27   

C        2.3569383656    1.0138243556    0.2720762686
C        1.4951005184   -0.0457500251    0.5235977434
C        1.7809065341   -3.6078826468    0.5497771568
C        1.8972695853    2.1288191408   -0.4255564423
C        1.3593169734   -2.8847797976   -1.5242594599
C        0.8600787442   -2.8361563108   -0.2572634838
C        0.1819934203    0.0316523259    0.0418415930
C       -0.2154324221    1.2278606853   -0.6296909107
C        2.7979012435   -3.9881848788   -0.2789736038
C       -0.5006478667   -2.3680094688    0.1542464646
C       -2.1503484175   -0.5150027568    0.3582496261
C       -2.4417643976    0.3224529169   -0.8867788505
N        0.6383721909    2.2373348845   -0.8596025424
N       -0.7750977327   -0.9958388557    0.2508940975
O       -1.4402620728   -3.1560445216    0.2176174318
O        2.5648307904   -3.5413947900   -1.5534117613
O       -1.5155107339    1.4117880961   -1.0616784564
Br       4.3227322785   -5.0054850603    0.2505603218
H        3.3831211795    0.9895477900    0.6178815381
H        1.8474903535   -0.8933147649    1.0992731155
H        1.6891141833   -3.8448253993    1.6044410439
H        2.5830480085    2.9463577223   -0.6156645944
H        0.8648483421   -2.4736520724   -2.3973877932
H       -2.2568789015    0.1001465060    1.2579260327
H       -2.8801116986   -1.3273875466    0.4296749909
H       -2.4032850981   -0.3230852871   -1.7699726587
H       -3.4568599564    0.7245349242   -0.8137840829
27   

C        2.2936335725    1.0800830431    0.2193051497
C        1.4511311534    0.0089535434    0.4853103544
C        1.7145884424   -3.7929430339    0.4934048031
C        1.8186194964    2.1696631216   -0.5071084922
C        1.3704276319   -2.7278819763   -1.4382702664
C        0.8732864465   -2.8208125590   -0.1714222059
C        0.1406965618    0.0476013487   -0.0125355456
C       -0.2738746417    1.2209223176   -0.7123609135
C        2.7018036389   -4.1265566017   -0.3891887750
C       -0.4637155455   -2.3542933068    0.3054128386
C       -2.1869490422   -0.5546472620    0.2790587029
C       -2.4728882379    0.2584716935   -0.9838663763
N        0.5621087405    2.2422882165   -0.9558730494
N       -0.7964939394   -0.9957439234    0.2144034520
O       -1.3606336980   -3.1623726954    0.5332638816
O        2.5174246871   -3.4690465948   -1.5766392636
O       -1.5730233986    1.3693258237   -1.1588522820
Br       4.1281436756   -5.3431890333   -0.0343022453
H        3.3163137336    1.0844076000    0.5765228967
H        1.8179126063   -0.8173774933    1.0840128052
H        1.5915380137   -4.1841929593    1.4978530458
H        2.4899797239    2.9965863057   -0.7079679076
H        0.9104488427   -2.1597868549   -2.2393501226
H       -2.3359805005    0.0672675043    1.1680571367
H       -2.8916237040   -1.3900409109    0.3361786602
H       -2.3986806552   -0.3980986627   -1.8564483612
H       -3.4995368276    0.6343992558   -0.9381125530
27   

C        2.2517733566    1.1995557767    0.2154625453
C        1.4632171164    0.0931137818    0.5014418495
C        1.7939451544   -3.8773973488    0.4118697965
C        1.7217670946    2.2533636920   -0.5259253242
C        1.5425922255   -2.5238128568   -1.3466547309
C        0.9999725157   -2.7914229945   -0.1217265165
C        0.1510499525    0.0609495267    0.0079181810
C       -0.3234084759    1.2014006652   -0.7070678554
C        2.7972453756   -4.1094387328   -0.4849008502
C       -0.3251580783   -2.3569610362    0.4030609338
C       -2.1418860656   -0.6543021698    0.3210762349
C       -2.4728340222    0.1267600484   -0.9519426628
N        0.4615374482    2.2576581180   -0.9707082850
N       -0.7312107032   -1.0237008240    0.2569463583
O       -1.1619095309   -3.1917576508    0.7413747121
O        2.6699545152   -3.2757572342   -1.5645178794
O       -1.6303471468    1.2785498445   -1.1482957174
Br       4.1734632449   -5.4152880258   -0.2811273444
H        3.2741853743    1.2593136794    0.5686513884
H        1.8705056488   -0.7070422501    1.1102394377
H        1.6270391397   -4.4083305339    1.3434064042
H        2.3515529469    3.1085724442   -0.7424957315
H        1.1283843051   -1.8253113235   -2.0654998878
H       -2.3212134441   -0.0301276131    1.2028449612
H       -2.8001207030   -1.5261367690    0.3885657548
H       -2.3695349975   -0.5373771996   -1.8158282662
H       -3.5168220520    0.4515882860   -0.9070509712
27   

C        2.2399680445    1.2679205145    0.2624248120
C        1.4696659820    0.1559203540    0.5764321142
C        1.7392403068   -3.9805539340    0.3928235576
C        1.6990338634    2.2847846386   -0.5225138579
C        1.6851612884   -2.3900706727   -1.1768883568
C        1.0395456683   -2.7889220987   -0.0376400848
C        0.1665456811    0.0821613729    0.0665353665
C       -0.3226772941    1.1868174965   -0.6922318077
C        2.7831764701   -4.1588117168   -0.4689956122
C       -0.2665460633   -2.3354370951    0.5099079826
C       -2.1109640025   -0.6675390196    0.3883075169
C       -2.4490679510    0.0610580645   -0.9144690307
N        0.4449542343    2.2483201007   -0.9835598797
N       -0.6936357118   -1.0115673572    0.3408141280
O       -1.0741326823   -3.1634821626    0.9297254437
O        2.7764135744   -3.1829389993   -1.4307274196
O       -1.6258863071    1.2201219702   -1.1500712386
Br       4.0630304267   -5.5704362375   -0.3680128900
H        3.2561531113    1.3610279684    0.6262500439
H        1.8803060861   -0.6198073256    1.2146502768
H        1.4819151112   -4.6147625613    1.2351545487
H        2.3145461036    3.1444146184   -0.7615006796
H        1.3702901248   -1.5722098775   -1.8156369708
H       -2.3062096268   -0.0159887598    1.2465305107
H       -2.7518254618   -1.5497288325    0.4838318396
H       -2.3295042183   -0.6324274771   -1.7529400733
H       -3.4990078208    0.3681749973   -0.8869165322
27   

C        2.2607184967    1.3134330487    0.2612271879
C        1.5009849045    0.2000965919    0.5969215699
C        1.6523849814   -4.0803992994    0.2421408535
C        1.7110828103    2.3081372441   -0.5468549337
C        1.8085125264   -2.3033146436   -1.1065353859
C        1.0554591213   -2.7994676703   -0.0735383783
C        0.2017346506    0.1038785193    0.0840415637
C       -0.2994435006    1.1874433964   -0.6961028128
C        2.7324757391   -4.2285749411   -0.5794393780
C       -0.2168325830   -2.3180848574    0.5247686698
C       -2.0630217927   -0.6540743125    0.4409516791
C       -2.4205404596    0.0420012660   -0.8752872177
N        0.4582133224    2.2496747670   -1.0094066211
N       -0.6450211999   -0.9917389028    0.3797231372
O       -0.9953176843   -3.1315269204    1.0235448904
O        2.8524527720   -3.1426598083   -1.4059864350
O       -1.6042474794    1.1978033945   -1.1511521605
Br       3.9050752131   -5.7338436084   -0.5928468390
H        3.2750134050    1.4251827453    0.6250398158
H        1.9133356033   -0.5628324756    1.2497841075
H        1.3044052672   -4.7902889126    0.9860328901
H        2.3182391584    3.1685979120   -0.8035753069
H        1.6059485653   -1.3853649129   -1.6465114732
H       -2.2499107976    0.0163097233    1.2863802624
H       -2.6972795058   -1.5374610555    0.5658248147
H       -2.3095861845   -0.6715737684   -1.6980458273
H       -3.4712320330    0.3460276880   -0.8420535364
27   

C        2.2454925901    1.3779646638    0.3181982607
C        1.4990221028    0.2601268193    0.6702527541
C        1.5378262698   -4.1555756074    0.0723724489
C        1.6951422817    2.3386513472   -0.5307858959
C        1.9465048221   -2.2315432402   -0.9905979282
C        1.0577642164   -2.8005211823   -0.1117688077
C        0.2157629848    0.1259651489    0.1301195655
C       -0.2918451945    1.1785782123   -0.6865184199
C        2.6713153966   -4.2844555596   -0.6764770047
C       -0.1921616792   -2.3076855345    0.5259105968
C       -2.0346513574   -0.6435723579    0.5032510494
C       -2.4027489744    0.0064031251   -0.8344671356
N        0.4530552543    2.2446037394   -1.0163310815
N       -0.6151006213   -0.9740907936    0.4405630602
O       -0.9485438457   -3.1192320802    1.0621617301
O        2.9428320474   -3.1124088524   -1.3302806135
O       -1.5912505428    1.1543832610   -1.1573035333
Br       3.7289435552   -5.8673083785   -0.8072514270
H        3.2495777197    1.5197962149    0.6993076450
H        1.9059595493   -0.4810780744    1.3511845131
H        1.0804762963   -4.9246730052    0.6872727237
H        2.2918517844    3.2022342357   -0.8011307762
H        1.8793121555   -1.2331573708   -1.4053465308
H       -2.2191968044    0.0535511320    1.3272536094
H       -2.6633518996   -1.5252863610    0.6633285665
H       -2.2956802922   -0.7351206680   -1.6327422750
H       -3.4541876534    0.3083388475   -0.8049097773
27   

C        2.2541286680    1.4611337900    0.3619413095
C        1.5228394223    0.3455900354    0.7528446508
C        1.4444753086   -4.2052124228   -0.0271181999
C        1.7091074843    2.3594552140   -0.5568689533
C        2.1135462997   -2.2182404607   -0.7984640626
C        1.0918125494   -2.7991277640   -0.0861505554
C        0.2641774330    0.1499145062    0.1785922900
C       -0.2452302099    1.1454374617   -0.7052761476
C        2.6244472879   -4.3548796859   -0.6947600501
C       -0.1399917539   -2.2859837211    0.5757855766
C       -1.9727343042   -0.6206849164    0.5765956788
C       -2.3436079512   -0.0572208029   -0.8002299134
N        0.4849230733    2.2091179851   -1.0729035688
N       -0.5511059044   -0.9461083303    0.5308554524
O       -0.8783715200   -3.0868508506    1.1523681256
O        3.0523586608   -3.1466438142   -1.1735708332
O       -1.5346920960    1.0696270371   -1.1982204805
Br       3.5517736895   -6.0052975691   -0.9343129642
H        3.2417464249    1.6494735399    0.7651134804
H        1.9203543674   -0.3501637134    1.4853447891
H        0.8755654127   -4.9935214682    0.4565113915
H        2.2937800416    3.2212797393   -0.8574283601
H        2.1911378185   -1.1771540976   -1.0810480538
H       -2.1601120463    0.1254542540    1.3557576484
H       -2.5972983513   -1.4930786957    0.7939177529
H       -2.2362412646   -0.8477819392   -1.5499826240
H       -3.3957878985    0.2435495721   -0.7888994118
