63

C      2.83109    4.37436    0.61376
C      4.52326    2.65265    0.66601
C      3.32586    4.83327   -0.60573
C      5.02910    3.11308   -0.55054
C      2.86545    5.78953    4.93215
C      1.02249    3.99653    3.82522
C      0.56767    4.99864    4.72414
C      3.42660    3.28493    1.26453
C      4.42995    4.20298   -1.18887
C      3.32246    4.80416    4.06191
C      2.38817    3.88814    3.51033
C      1.51577    5.89126    5.27044
C     -0.59065    3.26070    2.02954
C      0.04719    3.06880    3.19154
C     -0.86028    5.19099    5.07183
C     -1.57101    2.15117    1.72864
C     -0.37467    1.76443    3.84583
C     -1.15857    6.50740    5.77225
C     -1.14985    1.03655    2.72024
C     -0.82352    7.03256    8.81754
C     -0.11562    5.87965    8.05031
C     -0.34938    8.01667    7.70936
C     -0.07789    6.80442    6.79866
C      5.65828    4.56039    5.00461
C      5.24040    6.02947    2.96868
C      2.84401    2.77808    2.57160
C      4.81055    4.76599    3.73633
C      5.00859    4.73785   -2.46878
O     -1.75318    4.38357    4.83705
O      1.19651    6.89532    6.13785
O      3.80481    1.90318    3.19216
F      4.06440    5.30201   -3.26386
F      5.94382    5.70303   -2.23856
F      5.62374    3.77410   -3.19872
H      1.98517    4.87702    1.07184
H      4.98610    1.80919    1.16575
H      2.85727    5.67840   -1.10062
H      5.88320    2.62060   -1.00524
H      3.55089    6.50254    5.37927
H     -0.48877    4.14778    1.40911
H     -2.59497    2.49921    1.92412
H     -1.54045    1.82004    0.68438
H      0.48126    1.18308    4.21254
H     -1.00934    1.98743    4.71075
H     -1.17623    7.31270    5.02572
H     -2.14584    6.44427    6.23466
H     -2.00077    0.46433    3.09954
H     -0.48153    0.33377    2.21120
H     -0.47712    7.23300    9.83355
H     -1.91009    6.91497    8.83423
H      0.89668    5.70067    8.42162
H     -0.64184    4.92618    7.95405
H     -1.05645    8.76425    7.33894
H      0.59160    8.50661    7.97288
H      5.56507    5.40019    5.70121
H      6.71603    4.46593    4.73663
H      5.35878    3.64847    5.53076
H      5.10286    6.93490    3.56946
H      4.66374    6.14251    2.04608
H      6.29981    5.96255    2.69888
H      1.96166    2.18915    2.30198
H      5.00354    3.91031    3.09470
H      3.40129    1.57748    4.01187
