67

C    -10.63881   -3.50085   -3.47878
C     -9.80869   -2.70148   -1.32922
C     -8.97112   -2.80895   -0.22119
C     -8.07670   -4.88427   -1.11115
C     -9.77400   -3.67033   -2.34404
C     -8.89891   -4.77015   -2.22626
C     -8.10309   -3.89586   -0.12515
C     -7.73649   -4.04093    2.34100
C     -5.86422   -4.11724    0.99341
C     -0.00978   -6.40385   -2.55826
C     -1.84995   -4.69228   -2.43897
C     -1.63829   -6.40682   -0.75036
C     -1.43253   -3.60694   -1.43841
C     -1.16907   -5.39223    0.28987
C     -6.52108   -4.23027    3.25041
C     -6.64337   -5.57479    3.98379
C     -6.40345   -3.05144    4.22515
C      2.05675   -6.04287   -5.58444
C      0.42758   -5.83739   -3.91099
C     -3.28169   -2.98967    2.57825
C     -1.75570   -3.11445    2.39560
C     -4.01352   -4.34752    2.59983
C     -1.26459   -2.96361    0.95424
C     -8.84119   -5.82910   -3.30904
N    -11.34897   -3.32290   -4.38341
N     -7.25296   -4.01774    1.01865
N     -5.42415   -4.24283    2.25850
N     -1.25553   -5.97250   -2.08697
N     -1.73580   -4.02416   -0.01486
O     -8.89149   -3.93429    2.67838
O      0.65237   -7.21208   -1.93112
O      1.59362   -6.48916   -4.31256
F     -7.96106   -6.80956   -2.99202
F    -10.04151   -6.40950   -3.50250
F     -8.44339   -5.30001   -4.48771
S     -4.93459   -4.06893   -0.41003
H    -10.49069   -1.86279   -1.41987
H     -8.99965   -2.05863    0.56143
H     -7.41428   -5.73488   -1.01407
H     -2.94008   -4.79441   -2.45284
H     -1.55246   -4.37419   -3.43746
H     -1.16793   -7.36698   -0.54092
H     -2.72624   -6.52705   -0.71080
H     -0.35731   -3.41696   -1.49278
H     -1.97303   -2.67495   -1.61850
H     -1.49026   -5.67155    1.29322
H     -0.07979   -5.30623    0.27675
H     -5.79691   -5.72690    4.65929
H     -6.68698   -6.40800    3.27713
H     -7.55976   -5.57387    4.57832
H     -5.54993   -3.18983    4.89498
H     -7.31018   -2.99916    4.83209
H     -6.28708   -2.10412    3.69155
H      2.96195   -6.61069   -5.80215
H      2.29674   -4.96957   -5.56849
H      1.31173   -6.23214   -6.37011
H      0.59669   -4.74822   -3.81362
H     -0.39036   -5.97178   -4.63988
H     -3.70065   -2.37030    1.77963
H     -3.49346   -2.46595    3.51365
H     -1.26162   -2.30377    2.94042
H     -1.37631   -4.03644    2.84903
H     -3.94136   -4.80014    3.59100
H     -3.56486   -5.05844    1.90142
H     -0.17231   -2.97283    0.91288
H     -1.61153   -2.01035    0.54765
H     -2.78605   -4.08185    0.04117
