57

C     -2.76658   -1.13666   -1.12350
C     -1.85001   -0.08163   -0.80862
C     -0.80530   -0.53238   -0.02806
C     -3.99415   -1.03355   -1.90690
C     -2.41237   -2.35663   -0.57140
C     -4.31473   -3.47301   -1.52389
C     -2.02975    1.33650   -1.27401
C     -8.52718   -1.83081   -2.40921
C     -7.00153   -0.60226   -0.83833
C     -7.80157   -4.18013   -0.93108
C      0.34699    0.24192    0.48034
C     -1.82680   -5.56470   -1.16416
C     -2.71435   -4.78994   -0.18511
C     -6.06542   -2.16831   -2.62818
C      3.74682    1.13852   -1.28907
C      2.69619    1.10877   -0.17348
C     -1.32426   -6.86509   -0.55664
C     -7.21359   -1.90276   -1.61803
N     -4.74094   -2.22329   -1.97872
N     -3.14593   -3.48982   -0.72691
N      4.86946    1.93836   -0.81394
N      1.47053    0.32648   -0.58135
O     -4.36423   -0.00244   -2.46004
O     -4.88230   -4.51720   -1.78980
O     -7.21822   -2.91937   -0.60334
F     -2.41208   -7.65685   -0.16571
S     -0.93206   -2.26031    0.34189
H     -3.00037    1.72159   -0.95253
H     -1.25070    2.00217   -0.88896
H     -2.03689    1.38770   -2.36622
H     -8.68777   -2.71342   -3.03492
H     -9.37309   -1.73535   -1.72272
H     -8.52224   -0.95338   -3.06266
H     -6.12501   -0.68218   -0.18915
H     -7.86936   -0.42414   -0.19806
H     -6.86480    0.24889   -1.50845
H     -7.57376   -4.84151   -0.09293
H     -7.37003   -4.61719   -1.83752
H     -8.89006   -4.10372   -1.03612
H      0.09132    1.27770    0.70822
H      0.81294   -0.20009    1.36315
H     -0.95466   -4.96398   -1.45213
H     -2.40075   -5.77831   -2.07019
H     -2.19813   -4.59897    0.76165
H     -3.61315   -5.36253    0.03661
H     -6.21957   -3.11892   -3.13686
H     -6.02774   -1.36967   -3.36825
H      4.00715    0.10813   -1.58632
H      3.31874    1.62838   -2.17077
H      2.37359    2.12129    0.07361
H      3.08563    0.63629    0.73140
H     -0.71575   -6.68794    0.33792
H     -0.73984   -7.43954   -1.28107
H      5.39473    2.33259   -1.59002
H      5.51733    1.38281   -0.26011
H      1.72969   -0.63171   -0.84381
H      1.05769    0.73581   -1.42768
