66

C     -7.55227    4.92527   -5.43417
C     -8.49275    5.62668   -5.75841
C     -0.51087   -1.32814   -2.24920
C      0.75055   -0.74871   -2.08937
C     -5.92015    3.15232   -5.98262
C     -1.61417   -0.51094   -2.49997
C      0.90007    0.63716   -2.19985
C     -4.85277    2.34238   -5.64041
C     -5.87351    4.19474   -3.79182
C     -6.45011    4.09726   -5.06177
C     -4.79410    3.37150   -3.44121
C     -1.46949    0.87830   -2.57420
C     -0.19777    1.47233   -2.44616
C     -4.26782    2.43682   -4.35875
C     -4.21676    3.45269   -2.09865
C     -2.67511    1.71387   -2.85987
C     -4.08953    1.02113    2.84366
C    -10.66373    6.80163   -5.06033
C     -9.70931    7.87202   -5.51570
C     -3.18274    1.84300    1.92032
C     -4.21794   -0.41997    2.34321
C     -3.79027    0.25687    0.07281
C     -9.60642    6.46979   -6.11108
C     -3.65821    1.73233    0.46597
C     -0.01129    2.96464   -2.59846
C     -3.94462   -2.75783    0.24253
C     -6.03320   -1.69067   -0.71880
C     -2.69047    2.48112   -0.45885
C     -5.11164   -1.78423    0.50422
N     -3.18575    1.63171   -4.05232
N     -3.16508    2.54300   -1.85708
N     -4.71170   -0.44166    0.96635
O     -4.59920    4.21895   -1.21475
H     -0.63562   -2.40555   -2.18293
H      1.61884   -1.37286   -1.89450
H     -6.36886    3.07732   -6.96892
H     -2.59844   -0.94718   -2.64140
H      1.88901    1.07965   -2.10434
H     -4.43983    1.62388   -6.34215
H     -6.25324    4.89991   -3.05998
H     -3.69433    1.02103    3.86619
H     -5.08736    1.47353    2.87438
H    -10.52090    6.37605   -4.07269
H    -11.69489    6.84748   -5.39772
H    -10.08171    8.65698   -6.16715
H     -8.91827    8.17353   -4.83722
H     -3.16406    2.89306    2.23455
H     -2.15154    1.46720    1.99443
H     -3.23413   -0.92077    2.44039
H     -4.92377   -0.97197    2.97348
H     -4.17131    0.18566   -0.94874
H     -2.78360   -0.20168    0.07621
H     -9.96636    6.35651   -7.13061
H     -4.64478    2.19851    0.38800
H     -0.51717    3.33592   -3.49536
H     -0.42083    3.51772   -1.74598
H      1.04888    3.21788   -2.67771
H     -3.34115   -2.43876   -0.61384
H     -3.28151   -2.83885    1.10972
H     -4.32887   -3.75966    0.02192
H     -5.49537   -1.37210   -1.61824
H     -6.84063   -0.97671   -0.53264
H     -6.47365   -2.66948   -0.93643
H     -1.71474    1.99833   -0.44618
H     -2.57886    3.51005   -0.11244
H     -5.71075   -2.19953    1.32399
