49

C     -5.26992    4.88999   -4.30729
C     -4.70799    2.79586   -3.23979
C     -2.93199   -1.36258    0.28231
C     -5.32963   -0.79219   -2.37312
C     -3.38468   -2.45219   -1.99494
C     -5.68556    0.55215   -3.00790
C     -2.62253   -0.16769    2.39472
C     -0.70481   -0.33087    0.88610
C     -1.73462   -0.63598    3.54518
C      0.14991   -0.79483    2.06575
C     -3.44477    1.10995   -1.99578
C     -2.34004   -1.81330   -1.07566
C     -3.93902   -1.26781   -2.82034
C     -2.86631   -0.15666   -2.63886
C     -5.85163    6.05300   -5.04867
C      0.50717   -0.60755    4.44599
N     -4.13517    4.91238   -3.67941
N     -3.80020    3.73247   -3.06345
N     -4.62796    1.53238   -2.74604
N     -2.10843   -0.67227    1.12031
N     -0.34462   -0.23610    3.32249
O     -4.10631   -1.62163    0.57561
O     -1.81700   -0.70322   -1.82110
S     -6.09304    3.32408   -4.20635
H     -5.36978   -0.72355   -1.28351
H     -6.08624   -1.52638   -2.66782
H     -2.88486   -3.17185   -2.64844
H     -4.16050   -2.96743   -1.42814
H     -5.81033    0.43081   -4.09446
H     -6.64158    0.91741   -2.60916
H     -3.64325   -0.52730    2.51686
H     -2.63049    0.92961    2.36279
H     -0.62002    0.75777    0.77917
H     -0.34794   -0.77594   -0.03829
H     -2.08711   -0.18087    4.47708
H     -1.82996   -1.73445    3.65092
H      0.16088   -1.90326    2.09024
H      1.18024   -0.45651    1.91047
H     -3.70344    0.92202   -0.94738
H     -2.71820    1.91990   -2.02109
H     -1.49984   -2.48907   -0.88582
H     -3.99351   -1.54338   -3.87831
H     -2.40461    0.11474   -3.59250
H     -6.00713    5.81809   -6.10716
H     -6.81618    6.35596   -4.62703
H     -5.15616    6.89154   -4.97282
H      0.13652   -0.13486    5.36109
H      1.52713   -0.25129    4.26948
H      0.54769   -1.70045    4.61469
