31

C     -6.98039   -0.02212    2.95933
C     -1.71459   -1.91120    2.42583
C     -1.41367   -2.19476    3.75540
C     -2.83594   -0.35333    4.54260
C     -3.89008    0.72515    1.20325
C     -7.28042    0.59866    1.71844
C     -3.13546   -0.04846    3.20431
C     -3.97366    0.95437    2.57305
C     -2.57304   -0.83827    2.16975
C     -1.97614   -1.41605    4.78693
C     -6.85396    1.81190    1.21936
C     -8.22398    0.84955   -0.19904
C     -4.67151    1.99155    3.30266
C     -9.01153    0.77904   -1.45754
N     -6.73477   -0.53715    3.97677
N     -8.15210    0.01362    0.77910
N     -5.54900    2.87365    2.94814
N     -3.05072   -0.33260    0.96647
N     -5.97081    2.80348    1.58740
O     -7.44058    1.98595   -0.00324
Br    -1.53382   -1.85698    6.60251
H     -1.29272   -2.51181    1.62439
H     -0.75172   -3.01784    4.00169
H     -3.26959    0.20624    5.36422
H     -4.34963    1.25778    0.38536
H     -4.41910    2.06983    4.35948
H     -9.72508    1.60734   -1.51878
H     -8.35899    0.83281   -2.33505
H     -9.55820   -0.16426   -1.47409
H     -2.83742   -0.70431    0.05118
H     -6.31153    3.71971    1.30613
