51

C     -1.61088    3.27946   -2.47196
C     -3.23509    2.18610   -3.90392
C     -2.08440    2.08727   -3.10191
C     -3.70206    1.10643   -4.64144
C     -2.93795   -0.08250   -4.56452
C     -1.42305    0.82112   -3.03580
C     -0.00843   -0.17422    0.82392
C      1.59806    2.15703    1.47391
C     -2.57563    1.70580    3.81169
C     -3.20632    0.38989    4.22285
C      2.10981    1.17885    0.42017
C      1.39848   -0.65108   -1.22084
C      0.89697    1.39058    2.58876
C      0.27579   -0.77840   -2.25124
C      0.08505    1.37765   -1.12003
C     -2.30064    0.44784    3.01520
C      0.93652    0.43419   -0.22441
C     -4.93911    1.20406   -5.50045
C     -3.32698   -1.29735   -5.36930
C     -0.94456   -0.22337    3.06152
N     -1.24814    4.28327   -1.99708
N     -1.85640   -0.20896   -3.79495
N     -0.33739    0.56069   -2.25624
N     -0.00116    0.34434    2.08890
O     -0.79142   -1.07873    0.50815
H     -3.74899    3.14294   -3.94986
H      2.41809    2.73799    1.90828
H      0.90612    2.87222    1.01566
H     -3.21068    2.46716    3.36839
H     -1.78444    2.09778    4.44557
H     -2.82586   -0.09099    5.12064
H     -4.27090    0.25254    4.05957
H      2.67996    1.70007   -0.35671
H      2.79153    0.45503    0.88615
H      1.60429   -1.60306   -0.72734
H      2.32074   -0.30696   -1.70235
H      1.64609    0.92482    3.24688
H      0.30867    2.07717    3.20474
H      0.64039   -1.03013   -3.25060
H     -0.46035   -1.52576   -1.95076
H     -0.78118    1.77621   -0.58607
H      0.69109    2.23076   -1.44530
H     -2.78562    0.37207    2.04576
H     -4.71793    1.00914   -6.55636
H     -5.70290    0.47961   -5.19451
H     -5.38279    2.20125   -5.43325
H     -3.34480   -1.07203   -6.44198
H     -2.61686   -2.10455   -5.18621
H     -4.33256   -1.64145   -5.10056
H     -1.05250   -1.28815    2.84558
H     -0.50141   -0.11902    4.05849
