27

C     -0.93100    1.38866    2.91868
C     -0.15649    0.60185    2.41570
C      1.59445   -1.53123   -0.10115
C      0.69199   -0.62335    0.44910
C      2.56875   -2.15997    0.67918
C      1.73439   -0.95249    2.61487
C      6.06202   -5.00934    3.76653
C      5.68393   -2.94126    4.91091
C      0.75881   -0.32738    1.82375
C      5.41801   -3.76672    3.81303
C      2.63715   -1.86492    2.05106
C      6.89510   -5.38842    4.81208
C      7.06992   -4.48534    5.88205
C      4.53633   -3.39664    2.65209
N      6.48924   -3.29799    5.91758
N      3.58968   -2.43841    2.92503
O      4.67751   -3.94168    1.55968
Cl     7.68734   -6.93626    4.76540
Cl     8.09017   -4.89772    7.23494
H     -1.61628    2.08250    3.35782
H      1.54393   -1.76168   -1.16178
H     -0.06157   -0.14168   -0.16575
H      3.26039   -2.86762    0.24467
H      1.78071   -0.71770    3.67580
H      5.90542   -5.65977    2.91213
H      5.27146   -1.93677    4.98740
H      3.50030   -2.15349    3.89137
