23

C      1.86866   -1.04826    0.02779
C      0.76477   -0.65098    0.79396
C      2.05575   -1.01970    2.81962
C      3.16523   -1.41842    2.06455
C      3.04140   -1.42045    0.66254
C      0.86171   -0.63198    2.18734
C      5.92992   -2.32155    4.28889
C     -0.18723    1.65576    3.34443
C      4.52085   -1.83991    3.99291
O      4.36576   -1.81357    2.56703
F      4.10696   -1.80677   -0.07673
S     -0.54419   -0.13662    3.18607
H      1.82738   -1.07514   -1.05704
H     -0.16277   -0.36266    0.31004
H      2.09942   -1.01039    3.90197
H      6.08832   -3.32394    3.88142
H      6.66911   -1.64722    3.84746
H      6.09088   -2.35548    5.37119
H     -0.98901    2.08629    3.95020
H     -0.17808    2.13687    2.36368
H      0.76979    1.81908    3.84567
H      4.35560   -0.83300    4.39868
H      3.77368   -2.51461    4.43086
