39

C      3.08234   -1.28545    1.93495
C      1.85773   -1.00664   -0.12788
C     -0.44086    4.10812    2.06782
C      0.68053    3.76782    4.17967
C      1.97840   -0.83808    2.66123
C      0.74427   -0.55629    0.58271
C     -0.71986    2.74415    1.98844
C      0.41082    2.39956    4.11550
C      3.03970   -1.37347    0.53439
C      0.26666    4.63809    3.15939
C      0.82079   -0.46907    1.97357
C     -0.28204    1.90095    3.01210
C      4.26045   -1.80061   -0.24445
C      0.53650    6.12038    3.26601
C      5.13835   -0.59274   -0.61660
C     -0.69408    6.93326    3.70816
O     -1.78822   -0.05248    2.05118
O     -0.51473   -0.42138    4.25658
O      6.34219   -0.97195   -1.28284
O     -1.74325    6.94207    2.73840
S     -0.59919    0.13592    2.89722
H      3.98577   -1.58234    2.46283
H      1.80273   -1.08756   -1.21130
H     -0.79131    4.77228    1.28379
H      1.21842    4.16419    5.03798
H      2.00033   -0.79440    3.74577
H     -0.17985   -0.29630    0.07582
H     -1.28597    2.33595    1.15683
H      0.71620    1.72778    4.91169
H      4.86777   -2.49984    0.33886
H      3.95694   -2.31987   -1.16210
H      1.33757    6.29808    3.99272
H      0.89169    6.51407    2.30483
H      4.55751    0.12005   -1.21986
H      5.45618   -0.07183    0.29043
H     -1.12994    6.49129    4.60780
H     -0.38255    7.95879    3.95265
H      6.10693   -1.37092   -2.13504
H     -1.45575    7.48754    1.98985
