50

C     -5.72555   -0.09053    1.61491
C     -4.75604   -2.92745    0.33712
C     -5.86466    0.49405    3.01133
C     -4.46352    0.35792    3.62813
C     -3.78388   -0.77642    2.81648
C     -6.22966   -5.66175    2.98057
C     -7.88770   -7.18405    1.86775
C     -4.61960   -8.86994   -0.42866
C     -6.63575   -7.56765   -1.26116
C     -4.15001   -1.52230    0.39039
C     -4.73502   -5.12942   -0.68926
C     -4.40671   -6.02354    0.52838
C     -6.70238   -6.24456    1.64787
C     -5.86831   -8.07775   -0.04301
C     -3.81065   -2.11231    3.56550
N     -4.53144   -0.80073    1.57544
N     -4.14871   -3.81116   -0.51658
N     -5.50540   -6.97700    0.97316
O     -6.48346    0.01794    0.66699
O     -5.73330   -3.26412    0.99873
F     -3.05443   -2.04679    4.68090
F     -5.05302   -2.49329    3.92987
F     -3.29192   -3.12356    2.79883
H     -6.22324    1.52259    2.95415
H     -6.61556   -0.09334    3.54834
H     -3.88977    1.27504    3.47945
H     -4.47515    0.14469    4.69762
H     -2.72306   -0.56858    2.63600
H     -5.90032   -6.45315    3.66563
H     -5.44956   -4.91164    2.87253
H     -7.07546   -5.15375    3.44879
H     -7.62395   -8.03342    2.50758
H     -8.33588   -7.55774    0.94648
H     -8.66113   -6.61697    2.39132
H     -3.95355   -8.30751   -1.08787
H     -4.05234   -9.20591    0.44640
H     -4.93468   -9.76422   -0.97251
H     -5.98251   -7.08760   -1.99076
H     -7.44121   -6.87778   -1.00381
H     -7.09041   -8.43115   -1.75435
H     -3.05930   -1.56761    0.30964
H     -4.53833   -0.97007   -0.47335
H     -4.33982   -5.56377   -1.60838
H     -5.81250   -5.01233   -0.80760
H     -4.19768   -5.38854    1.38391
H     -3.52060   -6.63074    0.34375
H     -6.96640   -5.43051    0.97456
H     -6.51891   -8.73690    0.53160
H     -3.37050   -3.52321   -1.09553
H     -5.07649   -7.50013    1.74397
