51

C      0.43018   -2.95299    0.31651
C     -1.39971   -1.46417    0.76308
C     -0.45135   -4.03206    0.23646
C     -2.29821   -2.53158    0.69294
C     -0.02241   -1.64772    0.56364
C     -1.81968   -3.81391    0.41552
C     -4.69400    2.44190   -2.25072
C     -2.18479    2.51868   -2.38176
C     -3.34296    0.33196   -2.03682
C      0.44147    0.79335    1.19587
C      0.97993   -0.50358    0.59694
C     -3.44161    3.27965   -1.95899
C     -4.62409    1.04817   -1.61152
C      1.42042    0.02847   -0.80416
C      0.29505    1.02889   -1.14843
C     -3.47698    4.64506   -2.65575
C     -5.83966    0.18169   -1.96176
C      1.76481   -0.99036   -1.89015
C     -0.83917    0.42316   -1.99717
N     -2.12150    1.16080   -1.72278
O     -0.27358    1.44554    0.10905
Cl    -2.93742   -5.15238    0.31331
H      1.49356   -3.13895    0.18962
H     -1.79395   -0.47998    0.99968
H     -0.08103   -5.03429    0.04549
H     -3.35812   -2.37611    0.87153
H     -5.58080    2.96855   -1.88456
H     -4.81801    2.33790   -3.33751
H     -2.16878    2.34151   -3.46135
H     -1.27936    3.05723   -2.09867
H     -3.22040   -0.62129   -1.51797
H     -3.32672    0.14603   -3.11517
H     -0.25848    0.66675    2.02216
H      1.25654    1.44780    1.52188
H      1.86889   -0.83153    1.14381
H     -3.37859    3.44947   -0.87465
H     -4.59162    1.16869   -0.51870
H      2.31699    0.63121   -0.62367
H      0.70176    1.91312   -1.65056
H     -3.52759    4.53202   -3.74415
H     -2.59292    5.24395   -2.41497
H     -4.35806    5.20927   -2.33842
H     -5.91427    0.02608   -3.04340
H     -6.76070    0.66901   -1.63082
H     -5.78884   -0.79987   -1.47965
H      0.94557   -1.67977   -2.10632
H      2.62358   -1.59353   -1.58341
H      2.04457   -0.48364   -2.81992
H     -1.01905   -0.61392   -1.72133
H     -0.62785    0.47724   -3.06672
H     -2.08665    1.32708   -0.70404
