45

C      0.63831   -5.46825   -2.73898
C      0.29821   -4.70652   -4.98672
C      3.05388   -5.86008   -5.53289
C      2.40767   -7.59802   -3.98963
C     -0.43499   -4.68313   -2.31342
C     -0.77188   -3.92380   -4.55536
C      4.13248   -6.63240   -5.96789
C      3.48071   -8.38543   -4.41092
C      1.03146   -5.49666   -4.08579
C      2.17354   -6.32526   -4.53985
C     -1.16584   -3.88334   -3.20676
C      4.32632   -7.88587   -5.39632
C     -4.47435   -5.57467   -1.47418
C     -1.39195   -0.49636   -1.61110
C     -1.39988   -0.75602   -3.12367
C     -1.31751   -1.81127   -0.82300
C     -2.51789   -1.73330   -3.50873
C     -2.42454   -2.78462   -1.25307
C     -2.40488   -3.08892   -2.76904
C     -3.65575   -3.92966   -3.14556
N     -3.68575   -5.25211   -2.53795
O     -5.28287   -4.82788   -0.93496
F      5.37298   -8.64503   -5.81253
H      1.19601   -6.04304   -2.00407
H      0.54911   -4.72430   -6.04414
H      2.91223   -4.86876   -5.95359
H      1.72776   -7.99216   -3.23979
H     -0.68787   -4.69143   -1.25920
H     -1.31121   -3.34304   -5.29713
H      4.82071   -6.27280   -6.72673
H      3.65960   -9.37274   -3.99618
H     -4.31323   -6.61803   -1.14039
H     -2.31066    0.03887   -1.33414
H     -0.55361    0.15648   -1.34165
H     -1.53079    0.18569   -3.66943
H     -0.43095   -1.16774   -3.43206
H     -0.33317   -2.26848   -0.97822
H     -1.40533   -1.61301    0.25155
H     -3.48597   -1.28897   -3.24214
H     -2.54394   -1.87585   -4.59377
H     -2.38065   -3.70569   -0.66579
H     -3.40033   -2.34295   -1.01940
H     -3.70239   -4.04285   -4.23448
H     -4.55945   -3.41199   -2.81782
H     -3.00133   -5.93336   -2.84236
