58

C     -4.04821   -9.70974   12.89577
C     -3.06338   -8.99689   13.58839
C     -4.39458   -9.32116   11.59760
C      3.66074   -4.10094    7.27276
C     -2.42982   -7.90761   12.98344
C     -3.75696   -8.23012   10.99845
C      3.79288   -4.85086    6.10648
C      2.39684   -3.75037    7.76447
C      1.38691   -4.91768    5.86260
C      1.66717   -7.86447    1.49099
C     -2.76606   -7.50890   11.68072
C      2.65753   -5.27116    5.38037
C      1.28695   -4.17628    7.03746
C      0.30100   -7.64512    1.53651
C     -0.20344   -6.80065    2.56230
C      1.95592   -6.55696    3.31876
C     -3.35341   -4.99789    3.30611
C     -2.04062   -6.36587   11.00892
C     -0.72146   -6.82411   10.36140
C     -0.00225   -5.70792    9.60226
C     -2.30747   -6.56806    5.00485
C     -2.07246   -5.69011    3.77409
N      2.52515   -7.32709    2.37253
N      0.65782   -6.27698    3.45601
N      2.86042   -6.02431    4.22246
N     -1.51122   -6.47308    2.66723
N     -0.82018   -5.27889    8.45280
O     -0.28706   -2.81595    8.67503
O     -1.28156   -3.77243    6.50994
O     -3.23717   -7.59635    4.64164
S     -0.37205   -3.86120    7.65664
Br    -0.86544   -8.44568    0.24717
H     -4.54483  -10.55486   13.36544
H     -2.79301   -9.28684   14.60077
H     -5.16508   -9.86346   11.05498
H      4.55323   -3.78275    7.80434
H     -1.66902   -7.35466   13.53156
H     -4.03854   -7.92708    9.99157
H      4.78544   -5.11120    5.74482
H      2.27422   -3.15747    8.66428
H      0.50714   -5.20366    5.30943
H      2.09506   -8.49724    0.71625
H     -4.12027   -5.72863    3.03216
H     -3.14675   -4.35822    2.44350
H     -3.74945   -4.37406    4.11200
H     -1.81929   -5.57869   11.73935
H     -2.67421   -5.91156   10.24172
H     -0.91706   -7.66630    9.68435
H     -0.04394   -7.20822   11.13270
H      0.99429   -6.04392    9.28301
H      0.12615   -4.83462   10.24649
H     -1.34932   -7.00667    5.31992
H     -2.69685   -5.93765    5.81452
H     -1.33809   -4.93276    4.04973
H      3.81484   -6.28439    4.00489
H     -2.16238   -7.01975    2.11660
H     -0.95867   -6.01619    7.76182
H     -3.40724   -8.14969    5.41791
