17   

C        5.9158521325    0.1245285616   -0.8427791237
C        4.6764425716   -0.6282312984   -1.0436197808
C        5.9741688420    1.0500047293    0.1689330093
C        3.5816452153   -0.4470019345   -0.2372720023
C        4.8146092759    1.2603978848    1.0111313561
C        2.2659951024   -1.1421536125   -0.4086026817
C        2.1075632438   -2.3280659497   -1.3497842866
N        3.6763777879    0.5186272257    0.7948159361
O        4.8242461879    2.0843599321    1.9084027857
O        1.2844112229   -0.7092932295    0.1842437942
H        6.7741295640   -0.0417735557   -1.4858065802
H        4.6406100848   -1.3400601089   -1.8607793742
H        6.8598144111    1.6392565912    0.3624002745
H        2.8164826014   -3.1141602867   -1.0769386662
H        2.2903112126   -2.0123242938   -2.3800315325
H        1.0919025165   -2.7272772777   -1.2764445191
H        2.8787423777    0.7381232787    1.3833151454
17   

C        5.9079747330    0.1528480299   -0.8595982509
C        4.6589055294   -0.5745044709   -1.0908287193
C        5.9890274096    1.0089948916    0.2099259277
C        3.5834660551   -0.4497416214   -0.2487894074
C        4.8432078627    1.1730585172    1.0809013667
C        2.2471792405   -1.0928431639   -0.4736933631
C        2.1024881768   -2.3407471411   -1.3332314250
N        3.6987490529    0.4483619028    0.8404133104
O        4.8687075392    1.9445889883    2.0233295791
O        1.2419971995   -0.5386245452   -0.0465966649
H        6.7539931674    0.0251104277   -1.5272152953
H        4.5971822101   -1.2172855657   -1.9618579612
H        6.8814240062    1.5797459178    0.4264501654
H        2.7448696150   -3.1339393243   -0.9417090210
H        2.3838017787   -2.1193494774   -2.3656402440
H        1.0646330337   -2.6854676874   -1.3153674840
H        2.9024989677    0.6663353213    1.4308885338
17   

C        5.8956778490    0.2012279643   -0.9323449215
C        4.6328663803   -0.5018082196   -1.1635495827
C        6.0321053914    0.9650128837    0.1996924294
C        3.6045282893   -0.4538555016   -0.2576512753
C        4.9292381426    1.0586992335    1.1343348625
C        2.2465296070   -1.0559567065   -0.4933323175
C        2.0801107302   -2.3589225324   -1.2641537046
N        3.7723249528    0.3541491052    0.8932925150
O        5.0007247274    1.7538765998    2.1321660408
O        1.2512824461   -0.4054407909   -0.2061265544
H        6.7073697472    0.1300841953   -1.6491922117
H        4.5223791557   -1.0566358407   -2.0881608863
H        6.9362956665    1.5157888511    0.4189982944
H        2.4656214323   -3.1878940503   -0.6647415767
H        2.6183472781   -2.3175085587   -2.2132892975
H        1.0206091669   -2.5351988879   -1.4706782761
H        3.0021144829    0.5467524244    1.5249704222
17   

C        5.8836029583    0.2582817331   -0.9781711016
C        4.6132479791   -0.4209492860   -1.2363174634
C        6.0403606133    0.9450813901    0.1999126934
C        3.6013425379   -0.4282471819   -0.3126142550
C        4.9507353561    0.9836507937    1.1544693857
C        2.2352875803   -1.0068648768   -0.5900788114
C        2.0829501664   -2.3860420145   -1.2178047799
N        3.7851199639    0.3038178809    0.8852622993
O        5.0406363947    1.6093979116    2.1957964089
O        1.2549137168   -0.2830536710   -0.5134046149
H        6.6840310811    0.2309572120   -1.7105199012
H        4.4775944919   -0.9081830012   -2.1955156416
H        6.9508707104    1.4757273147    0.4415699143
H        2.1350030361   -3.1464227766   -0.4341494521
H        2.8756346149   -2.5722783112   -1.9453174269
H        1.1154896853   -2.4614214910   -1.7220341879
H        3.0271712686    0.4674842007    1.5387348827
17   

C        5.8667963904    0.3797743467   -1.0421656337
C        4.5899982013   -0.2778304771   -1.3226331220
C        6.0452657612    0.9858814177    0.1765707003
C        3.5912782317   -0.3358162693   -0.3893739771
C        4.9707006783    0.9642576110    1.1489272534
C        2.2241240464   -0.9227172934   -0.6800819235
C        2.0872052424   -2.3889208446   -1.0620190186
N        3.7946227526    0.3145639057    0.8516373628
O        5.0829259160    1.5083065913    2.2330608831
O        1.2725267753   -0.1776292616   -0.8361910436
H        6.6554690722    0.3967849021   -1.7874553595
H        4.4330535548   -0.7154139985   -2.3028979787
H        6.9627022697    1.4942745259    0.4390035040
H        2.0415787412   -2.9963434867   -0.1543285503
H        2.9447295638   -2.7071554853   -1.6597176308
H        1.1718315703   -2.5416807153   -1.6403879015
H        3.0559939790    0.4288952962    1.5362786584
17   

C        5.8226430338    0.5267111497   -1.1289760537
C        4.5511075813   -0.1149899769   -1.4645072484
C        6.0047950001    1.0086876033    0.1435071331
C        3.5478537131   -0.2468975202   -0.5457813942
C        4.9392068252    0.8744906396    1.1166460769
C        2.2190782802   -0.9123643688   -0.8553202577
C        2.0182808236   -2.3859388585   -0.5403714006
N        3.7625096096    0.2562204531    0.7605477840
O        5.0612231571    1.2864760108    2.2564316982
O        1.2871430145   -0.2533364983   -1.2786800561
H        6.6064901193    0.6226364813   -1.8733913378
H        4.4000437613   -0.4877255869   -2.4723875630
H        6.9207765841    1.4943004474    0.4504444773
H        2.4318546790   -2.6153805470    0.4450769261
H        2.5294451941   -2.9925694228   -1.2923374576
H        0.9520794017   -2.6290701788   -0.5467887051
H        3.0419993223    0.2703937127    1.4728286280
17   

C        5.7974502127    0.6506520572   -1.1635235596
C        4.5367766902    0.0094347126   -1.5381775611
C        5.9881633477    1.0202682780    0.1447217588
C        3.5413465505   -0.2103252775   -0.6269185319
C        4.9418646009    0.7708679885    1.1158296322
C        2.2620803939   -0.9397178983   -0.9788140454
C        1.9375262188   -2.2635494507   -0.3017554978
N        3.7713773430    0.1649549094    0.7202596803
O        5.0751657349    1.0697873941    2.2890600296
O        1.3949635532   -0.3917246713   -1.6356852497
H        6.5680664763    0.8293668047   -1.9064988531
H        4.3862063437   -0.2948645135   -2.5691217261
H        6.8983900763    1.4962836442    0.4823025866
H        2.2958899428   -2.2635208687    0.7304496173
H        2.4260618636   -3.0759418208   -0.8461956631
H        0.8569901272   -2.4316409098   -0.3049071089
H        3.0721019369    0.0818950222    1.4484014843
17   

C        5.7613838476    0.7971996957   -1.1484610260
C        4.5144051611    0.1466355658   -1.5509756486
C        5.9762198797    1.0477475676    0.1842006871
C        3.5492855179   -0.1866642816   -0.6395001967
C        4.9682141861    0.6668783644    1.1535468948
C        2.3169975310   -0.9543562677   -1.0464371933
C        1.8921431545   -2.1857151648   -0.2586333339
N        3.8063340570    0.0616294958    0.7321997188
O        5.1269935260    0.8520051365    2.3468904251
O        1.5514733184   -0.5003881308   -1.8801609597
H        6.5041414616    1.0728321900   -1.8901851804
H        4.3485764143   -0.0744691537   -2.6009237160
H        6.8793036779    1.5221333761    0.5426205917
H        1.7520071709   -1.9334711188    0.7949378197
H        2.6625475331   -2.9566298502   -0.3452711828
H        0.9531434303   -2.5790098219   -0.6585224031
H        3.1428697342   -0.1355676955    1.4713381932
17   

C        5.7522482533    0.8922190268   -1.1352176270
C        4.5300369650    0.2111095919   -1.5620081477
C        5.9808320185    1.0607365534    0.2081123741
C        3.5998078717   -0.2308578743   -0.6592301219
C        5.0117734543    0.5645697617    1.1651439862
C        2.4004493313   -1.0193468075   -1.1057766625
C        1.8642646636   -2.1567946124   -0.2480467389
N        3.8709519132   -0.0650651168    0.7223851968
O        5.1850495417    0.6740811444    2.3657773990
O        1.7582558882   -0.6634972888   -2.0813397249
H        6.4662885477    1.2538385159   -1.8681560513
H        4.3548380299    0.0546260968   -2.6222558779
H        6.8673437131    1.5527926339    0.5836624226
H        1.4180407168   -1.7585954315    0.6663801801
H        2.6791770876   -2.8382973568    0.0108453091
H        1.1040742191   -2.7136210025   -0.8034168165
H        3.2407383827   -0.3591097305    1.4583055500
17   

C        5.7388564671    0.9568459552   -1.1176602069
C        4.5306667650    0.2565790621   -1.5532354355
C        6.0049269527    1.0442305595    0.2264702235
C        3.6525239341   -0.2904090779   -0.6549309504
C        5.0887193215    0.4446117203    1.1761547641
C        2.4539807443   -1.0677588776   -1.1180386673
C        1.8004856169   -2.1018767025   -0.2114648641
N        3.9606942388   -0.2028199630    0.7264078083
O        5.2935481789    0.4857815973    2.3761101956
O        1.9254363648   -0.7978429940   -2.1860423422
H        6.4128738527    1.3969561519   -1.8455472432
H        4.3259650091    0.1719684102   -2.6165006054
H        6.8827935392    1.5473594389    0.6075998257
H        1.3527136294   -1.6099950616    0.6555354227
H        2.5492169105   -2.8247353533    0.1236503790
H        1.0189132694   -2.6351236526   -0.7603295762
H        3.3723984092   -0.5784583120    1.4597905734
17   

C        5.7067602817    1.0081258262   -1.1239323084
C        4.5285726370    0.2636271177   -1.5683312255
C        5.9966864150    1.0499358363    0.2173452791
C        3.7054487251   -0.3787117590   -0.6805186374
C        5.1342519547    0.3600140265    1.1556992644
C        2.5197847827   -1.1718559100   -1.1493680730
C        1.7700935700   -2.0938134167   -0.1968875712
N        4.0334610480   -0.3276590630    0.6983744862
O        5.3584642465    0.3637684841    2.3528852101
O        2.1089247694   -1.0374983989   -2.2928067971
H        6.3400598636    1.5167447681   -1.8436946345
H        4.3054328227    0.2233276480   -2.6305161224
H        6.8541367451    1.5830138843    0.6041911754
H        1.3201852807   -1.5103872713    0.6103981324
H        2.4586247450   -2.8319891857    0.2228900901
H        0.9775381052   -2.6198751148   -0.7369210017
H        3.4866313243   -0.7728708109    1.4248331698
17   

C        5.6717646012    1.0639868281   -1.1340210407
C        4.5259456542    0.2763829557   -1.5887287339
C        5.9832866469    1.0694225893    0.2030782353
C        3.7611081864   -0.4517666124   -0.7150190569
C        5.1749327171    0.2996602536    1.1273708695
C        2.5868448279   -1.2571693550   -1.1917704492
C        1.7421274624   -2.0633438263   -0.2139985195
N        4.1046674672   -0.4287647640    0.6608391179
O        5.4152192916    0.2758496517    2.3212040392
O        2.2979993940   -1.2712463204   -2.3796747577
H        6.2640297723    1.6334473685   -1.8430737938
H        4.2820115224    0.2740339563   -2.6470954081
H        6.8181035437    1.6324855277    0.5968809676
H        1.2978106872   -1.3974643588    0.5303582677
H        2.3637062519   -2.8108476096    0.2857628536
H        0.9393076080   -2.5756260159   -0.7521274135
H        3.5985471287   -0.9344673355    1.3771265761
17   

C        5.6032439796    1.1133734516   -1.1463752323
C        4.4926711631    0.2748161843   -1.5973546048
C        5.9437641304    1.1025981818    0.1836735932
C        3.7972412227   -0.5256767852   -0.7290774165
C        5.1999604736    0.2661137516    1.1043629408
C        2.6353004122   -1.3529533395   -1.1978756225
C        1.7039737164   -2.0278622904   -0.1997276617
N        4.1628088143   -0.5106984018    0.6410702568
O        5.4626583472    0.2322518381    2.2932234348
O        2.4609359928   -1.5396935368   -2.3933267147
H        6.1464566112    1.7334593196   -1.8522292681
H        4.2182236528    0.2912810420   -2.6481042860
H        6.7541435405    1.7020658887    0.5747775457
H        1.2736632534   -1.2789735995    0.4704881026
H        2.2562923884   -2.7688178776    0.3837504271
H        0.8915972427   -2.5310381311   -0.7320563919
H        3.7051727395   -1.0663093870    1.3530019238
17   

C        6.2646324392   -0.1042235150   -0.0290562839
C        5.2016605974   -1.0996667743   -0.1668776868
C        5.9218058606    1.2224928051    0.0569987193
C        3.8791654531   -0.7420714901   -0.1881625351
C        4.5240707669    1.6032857429    0.0099160994
C        2.8031174041   -1.7669852026   -0.4035259428
C        1.4439518845   -1.3619585674   -0.9576063047
N        3.5532291455    0.6360901196   -0.1161152057
O        4.1763998980    2.7692041581    0.0673659415
O        2.9716906851   -2.9186865758   -0.0316716827
H        7.3052980304   -0.4106087512    0.0019434783
H        5.4707810290   -2.1484267120   -0.2521726218
H        6.6633446613    2.0028977836    0.1576785288
H        1.5749784896   -0.8266934195   -1.9019317676
H        0.9240846339   -0.7201624420   -0.2420866900
H        0.8374785475   -2.2536275178   -1.1408494194
H        2.6055459851    0.9922103649   -0.1270405349
17   

C        6.2553280403   -0.1198954397   -0.0979052696
C        5.1842672215   -1.1105400017   -0.2042676826
C        5.9202016295    1.2013263275    0.0671632524
C        3.8645757574   -0.7562803635   -0.1116008681
C        4.5227519227    1.5807219402    0.1331813974
C        2.7738708443   -1.7682767120   -0.3256359304
C        1.4847954127   -1.3727880378   -1.0319321028
N        3.5450878249    0.6170891627    0.0355408472
O        4.1810213429    2.7431581624    0.2576814002
O        2.8478610604   -2.8717291498    0.1917436240
H        7.2954629908   -0.4247910855   -0.1524837137
H        5.4427600246   -2.1540499769   -0.3578101036
H        6.6673377859    1.9786795976    0.1482152282
H        1.7203754362   -0.8775133229   -1.9778487382
H        0.9041398046   -0.6956247976   -0.4009454033
H        0.8881414434   -2.2651174653   -1.2420112065
H        2.5989200677    0.9690144279    0.1138053598
17   

C        6.2272844939   -0.1397055954   -0.1880395678
C        5.1392162191   -1.1153863634   -0.2540694984
C        5.9213879645    1.1763666452    0.0554782048
C        3.8350699803   -0.7546262144   -0.0481453543
C        4.5375591478    1.5645827120    0.2427816120
C        2.7100581202   -1.7427273109   -0.2256238851
C        1.4988306377   -1.3739921404   -1.0708125427
N        3.5444004490    0.6141757042    0.1780632633
O        4.2202293188    2.7237660457    0.4406386377
O        2.6670714108   -2.7597157670    0.4460183003
H        7.2568265742   -0.4509588703   -0.3328893557
H        5.3726998209   -2.1537732481   -0.4685824075
H        6.6814919812    1.9432565751    0.1119476196
H        1.8118549384   -1.2187382208   -2.1067904353
H        1.0360549988   -0.4592377979   -0.6935333743
H        0.7633833049   -2.1830686006   -1.0421002738
H        2.6123748664    0.9668910080    0.3578335216
17   

C        6.1992284798   -0.1559825754   -0.3372012218
C        5.0916882610   -1.1108512265   -0.3862459378
C        5.9370152131    1.1430964837    0.0208400255
C        3.8129150645   -0.7479914620   -0.0658629252
C        4.5790718531    1.5339016738    0.3423077981
C        2.6433006371   -1.7024542371   -0.1830686826
C        1.5192571813   -1.4027095000   -1.1643378817
N        3.5669469271    0.6034611738    0.2828716993
O        4.3002396583    2.6786290188    0.6512511716
O        2.4842602734   -2.5917580194    0.6338754262
H        7.2093638790   -0.4692115360   -0.5807419670
H        5.2924778978   -2.1364197574   -0.6795209088
H        6.7130205630    1.8941468342    0.0737988746
H        1.7918724322   -1.7841517230   -2.1518839247
H        1.3501990287   -0.3255546981   -1.2352292221
H        0.5959226964   -1.8886464701   -0.8370138298
H        2.6609075827    0.9457858976    0.5794847971
17   

C        6.1504561164   -0.1305794040   -0.4545318518
C        5.0176085293   -1.0558283334   -0.4961741938
C        5.9448318593    1.1465293928    0.0052425951
C        3.7670383238   -0.6799469887   -0.0927472970
C        4.6202940414    1.5441470420    0.4387957708
C        2.5672923993   -1.6092903455   -0.1280453662
C        1.6352219292   -1.5977703511   -1.3288979238
N        3.5813757870    0.6440393558    0.3744877112
O        4.3951385909    2.6679794750    0.8511509128
O        2.3018030336   -2.3047498404    0.8352369586
H        7.1360946922   -0.4490026153   -0.7784078731
H        5.1790252396   -2.0691556168   -0.8492838113
H        6.7424106950    1.8743553840    0.0617196441
H        2.1056185400   -2.1282506148   -2.1607995500
H        1.4315239238   -0.5674433596   -1.6317664849
H        0.6918899478   -2.0900066286   -1.0763766071
H        2.7072676693    0.9746158854    0.7660673658
17   

C        6.0831807674   -0.0515949205   -0.5977070213
C        4.9153904775   -0.9320337403   -0.6467508212
C        5.9518615540    1.1906263052   -0.0283309545
C        3.6942522182   -0.5328527904   -0.1762688428
C        4.6694947163    1.5967812396    0.5113318801
C        2.4901168763   -1.4522332948   -0.1241555236
C        1.9160489697   -2.0330516793   -1.4077011835
N        3.5919768893    0.7453348848    0.4239014318
O        4.5180312806    2.6826092359    1.0423350263
O        2.1296882091   -1.9088465759    0.9467050932
H        7.0387123337   -0.3778216620   -0.9955604135
H        5.0319130577   -1.9305915003   -1.0545924469
H        6.7797633809    1.8822578015    0.0441271663
H        2.7170328780   -2.2442365622   -2.1202195770
H        1.2247782951   -1.3128657389   -1.8531394559
H        1.3764904057   -2.9592813574   -1.1915119435
H        2.7590840509    1.0552742319    0.9113460262
17   

C        6.0148596609   -0.0062254084   -0.7115336914
C        4.8362524857   -0.8712264875   -0.7783134840
C        5.9152564916    1.2007260924   -0.0653638170
C        3.6299478674   -0.4837633315   -0.2568374593
C        4.6540318052    1.5879247339    0.5341197929
C        2.4285075552   -1.3949924198   -0.1932650926
C        1.9894041903   -2.1960966544   -1.4118010653
N        3.5623541320    0.7582263776    0.4195064242
O        4.5358666998    2.6361147799    1.1434962812
O        1.9368128236   -1.6581980057    0.8929816472
H        6.9555368226   -0.3182989051   -1.1536916857
H        4.9421881460   -1.8482782280   -1.2365770011
H        6.7539789201    1.8768237144    0.0265351645
H        2.8532234990   -2.5275586855   -1.9916740779
H        1.3559198481   -1.5699762164   -2.0455787008
H        1.4183963493   -3.0734110837   -1.0952900701
H        2.7488653552    1.0354852114    0.9577081054
17   

C        5.9795701564    0.0335276333   -0.7635399694
C        4.7850138696   -0.8075839255   -0.8528403173
C        5.9170699396    1.2002465101   -0.0435800702
C        3.5972790777   -0.4367718741   -0.2765392429
C        4.6777950143    1.5703900649    0.6089788749
C        2.3735758340   -1.3102375635   -0.2338681400
C        2.0197294956   -2.2359305804   -1.3903520158
N        3.5701819272    0.7660332816    0.4706134239
O        4.5938389371    2.5805232206    1.2847240793
O        1.7457838108   -1.4009038984    0.8119685009
H        6.9034974743   -0.2650479284   -1.2482942913
H        4.8666473257   -1.7513756803   -1.3796630218
H        6.7691414240    1.8565016463    0.0673791620
H        2.8798743294   -2.8459486373   -1.6737310392
H        1.6997802887   -1.6394924846   -2.2488401679
H        1.2016926890   -2.9000990180   -1.0971537287
H        2.7690154703    1.0218500941    1.0380882729
17   

C        5.9502682821    0.0838724999   -0.8286863140
C        4.7376686839   -0.7309315204   -0.9200157073
C        5.9388435315    1.2040504638   -0.0358308644
C        3.5838576038   -0.3849710869   -0.2639081742
C        4.7341205209    1.5530419542    0.6890543424
C        2.3375478922   -1.2189739994   -0.2410791133
C        2.0390603389   -2.2291956933   -1.3398728632
N        3.6094311886    0.7726164883    0.5518148727
O        4.6953424264    2.5239319946    1.4238662659
O        1.6022919691   -1.1609443702    0.7366537706
H        6.8472609417   -0.1968072604   -1.3712735699
H        4.7742014412   -1.6339725144   -1.5190751087
H        6.8060098936    1.8396981842    0.0781309755
H        2.7903357043   -3.0226650880   -1.3332320334
H        2.0449549509   -1.7287363375   -2.3117805209
H        1.0530392970   -2.6737843803   -1.1774078476
H        2.8240970648    1.0162108159    1.1468645812
17   

C        5.9213977585    0.1137335948   -0.8343032158
C        4.7104396486   -0.6967258578   -0.9751631210
C        5.9203718154    1.1604181432    0.0533134983
C        3.5717258454   -0.4260322904   -0.2598670717
C        4.7276710999    1.4388055982    0.8266527310
C        2.3128572554   -1.2359473146   -0.3117005409
C        2.0916835014   -2.2971040524   -1.3804997567
N        3.6075671838    0.6601336632    0.6487753010
O        4.6952639889    2.3488041210    1.6359429714
O        1.4661278265   -1.0745732063    0.5597979753
H        6.8083001652   -0.1112895832   -1.4178708100
H        4.7357776429   -1.5331508700   -1.6647210880
H        6.7858889962    1.7905699005    0.2043307195
H        2.8260186279   -3.0985134818   -1.2664867826
H        2.1903829612   -1.8490505948   -2.3727013953
H        1.0877156899   -2.7197952304   -1.2820424191
H        2.8155631857    0.8692104154    1.2485724016
17   

C        5.9368577801    0.0968571069   -0.8680474171
C        4.7048948049   -0.6775506742   -1.0288789046
C        5.9794921460    1.0878036449    0.0804131079
C        3.5948888381   -0.4396215293   -0.2587513919
C        4.8110673161    1.3443255265    0.8970161748
C        2.2999404417   -1.1843748567   -0.3600517874
C        2.1025308593   -2.3101232180   -1.3656439749
N        3.6753594512    0.5908653378    0.7100472344
O        4.8120256529    2.2155216504    1.7485603047
O        1.3782794544   -0.8762857794    0.3874910119
H        6.8036265721   -0.1080672943   -1.4881276593
H        4.6894799953   -1.4564335933   -1.7830818292
H        6.8606222695    1.6923885825    0.2450442513
H        2.8228712350   -3.1094855882   -1.1735856220
H        2.2407319859   -1.9291346391   -2.3807802964
H        1.0909882431   -2.7161815929   -1.2749201144
H        2.8848858391    0.8109927859    1.3080686571
