18   

C        4.6331489393    1.3459722868    0.7538182931
C        5.8139907059    1.1162717506    0.0578438783
C        3.5008874128    0.5758692131    0.4819786556
C        5.8525191554    0.1176164460   -0.9129832178
C        3.5148812075   -0.4449182471   -0.4880718959
C        4.7243040643   -0.6614946517   -1.1988641060
C        2.2836726517   -1.2595635898   -0.7409971179
C        0.9255131758   -0.7892420993   -0.2311505315
O        2.3102354744   -2.3131859061   -1.3628699842
O        4.8394502321   -1.6001086955   -2.1827804755
H        4.5933087657    2.1217186438    1.5103739166
H        6.6964253683    1.7112888470    0.2677201793
H        2.6063407872    0.7855760456    1.0569106815
H        6.7762154104   -0.0470307845   -1.4536463546
H        0.7670971183    0.2586431463   -0.4992967473
H        0.8758646206   -0.9036684779    0.8547635080
H        0.1296914981   -1.3874174884   -0.6844093851
H        5.7506973624   -1.6457513080   -2.5119244338
18   

C        4.6560720222    1.3455002948    0.7980864605
C        5.8087066583    1.1619622440    0.0407734512
C        3.5350944513    0.5453601376    0.5677991315
C        5.8294911207    0.1814569233   -0.9507644306
C        3.5390812337   -0.4554416673   -0.4197620245
C        4.7108291625   -0.6248424489   -1.1941939856
C        2.3294741382   -1.3189268933   -0.6179731070
C        0.9406437295   -0.7750285277   -0.3057241440
O        2.4123600260   -2.4711546229   -1.0185709282
O        4.7846255190   -1.5399449877   -2.2039744881
H        4.6309738453    2.1060786886    1.5704842688
H        6.6827894715    1.7791407181    0.2191879158
H        2.6587921192    0.7057303698    1.1858787917
H        6.7286194133    0.0543171159   -1.5406950549
H        0.8585710922    0.2596013037   -0.6492619343
H        0.7583991788   -0.8184452518    0.7710677277
H        0.1829331289   -1.3739967382   -0.8189725529
H        5.6888866188   -1.5978301350   -2.5507692943
18   

C        4.7236058684    1.2900806859    0.8579608739
C        5.8289614534    1.1404001212    0.0240818129
C        3.5968832321    0.4855203685    0.6732469358
C        5.7968164878    0.1891055236   -0.9967348699
C        3.5526894013   -0.4797736068   -0.3443829146
C        4.6707240110   -0.6193332219   -1.1921515888
C        2.3474367075   -1.3659700565   -0.4960315700
C        0.9502040419   -0.7750503675   -0.3656895793
O        2.4567350047   -2.5681761037   -0.6810882383
O        4.6741181714   -1.5111448070   -2.2252947877
H        4.7408016729    2.0260546901    1.6540196868
H        6.7074982763    1.7604686193    0.1669971013
H        2.7546132608    0.6093641910    1.3450198163
H        6.6581161189    0.0867103615   -1.6450196861
H        0.8937598159    0.1644801650   -0.9218804601
H        0.7197859994   -0.5888423669    0.6860966950
H        0.2119787739   -1.4706905701   -0.7747288298
H        5.5609874488   -1.5831980857   -2.6129038959
18   

C        4.7769615856    1.2316690621    0.9525417969
C        5.8308165851    1.1371717915    0.0451624948
C        3.6523811039    0.4162228940    0.8024124374
C        5.7505627053    0.2283879947   -1.0123180312
C        3.5638512259   -0.4991184923   -0.2538192506
C        4.6258028628   -0.5893715538   -1.1706775526
C        2.3643005783   -1.4049516050   -0.3769963154
C        0.9631906848   -0.8087622908   -0.4041814346
O        2.4840695210   -2.6188476484   -0.3551165292
O        4.5692325762   -1.4487952401   -2.2294476585
H        4.8335868130    1.9317161250    1.7785918149
H        6.7073851104    1.7655606693    0.1612312213
H        2.8511565382    0.4895706292    1.5296132251
H        6.5719453676    0.1659714960   -1.7151802673
H        0.7939813539   -0.3288123139   -1.3717157791
H        0.8460013262   -0.0657401112    0.3877131363
H        0.2178470960   -1.5966133726   -0.2633225925
H        5.4326239518   -1.5044313736   -2.6700832132
18   

C        4.8386256503    1.1837746994    1.0318076758
C        5.8391247091    1.1234481654    0.0622274956
C        3.7104653072    0.3667376636    0.9204153735
C        5.7020284705    0.2466484834   -1.0169378526
C        3.5680907327   -0.5143591444   -0.1557819405
C        4.5729332151   -0.5718901085   -1.1338144579
C        2.3581691156   -1.4159331338   -0.2556184048
C        0.9906649172   -0.8060596066   -0.5242997863
O        2.4380934431   -2.6069932263   -0.0090216900
O        4.4535330704   -1.4055747015   -2.2079336311
H        4.9388034366    1.8590088064    1.8741958900
H        6.7180226912    1.7535689127    0.1470481348
H        2.9441391127    0.4108631320    1.6870672707
H        6.4818005963    0.2098622127   -1.7673927399
H        0.9020946224   -0.5743587476   -1.5889998384
H        0.8687356877    0.1144999023    0.0517290273
H        0.2026521626   -1.5106233065   -0.2442694407
H        5.2844427772   -1.4338335139   -2.7101020214
18   

C        4.9142367219    1.1369593296    1.1193395971
C        5.8512057362    1.1056344317    0.0868139143
C        3.7790521339    0.3245279131    1.0545416343
C        5.6429453881    0.2631490438   -1.0082885534
C        3.5701342767   -0.5278990587   -0.0328433599
C        4.5065762503   -0.5506182160   -1.0771576825
C        2.3326806703   -1.3957109205   -0.1114142168
C        1.0784386722   -0.8460173573   -0.7723222829
O        2.3184521221   -2.5209620057    0.3569035494
O        4.3134659488   -1.3497972023   -2.1669313697
H        5.0674404686    1.7880054155    1.9727147902
H        6.7346538861    1.7333023146    0.1344139865
H        3.0568450214    0.3492429653    1.8638800340
H        6.3722998816    0.2506650078   -1.8085871641
H        1.2780008438   -0.6567850726   -1.8303912467
H        0.7866778949    0.0903325857   -0.2900626850
H        0.2598387265   -1.5659188317   -0.6856054682
H        5.1000016641   -1.3407319203   -2.7372607230
18   

C        4.9701236541    1.0775134845    1.1664757153
C        5.8557071739    1.0796484014    0.0891756576
C        3.8243295764    0.2788919426    1.1243309099
C        5.5867961031    0.2831554124   -1.0270885110
C        3.5543983572   -0.5279086104    0.0145702431
C        4.4399970981   -0.5176555137   -1.0743652806
C        2.2910481144   -1.3567723676   -0.0306313630
C        1.1372969323   -0.9255124012   -0.9244365183
O        2.1822206524   -2.3746476185    0.6332516641
O        4.1962937831   -1.2792286652   -2.1808200819
H        5.1704860829    1.6926067632    2.0365915250
H        6.7469361177    1.6973335514    0.1191520009
H        3.1399477969    0.2782804923    1.9664977489
H        6.2787043382    0.2955179002   -1.8599787491
H        1.4640936696   -0.9008006951   -1.9669947077
H        0.8001100189    0.0722175266   -0.6322962917
H        0.3044949046   -1.6277961049   -0.8292810436
H        4.9509529655   -1.2383922829   -2.7917704423
18   

C        5.0275439261    1.0331201152    1.1988496244
C        5.8693798051    1.0699346036    0.0873066783
C        3.8679040532    0.2546136141    1.1683375815
C        5.5444627314    0.3277476917   -1.0519107177
C        3.5428392847   -0.4978245275    0.0325380724
C        4.3838305303   -0.4537563356   -1.0906133810
C        2.2553888184   -1.2841796603    0.0325155930
C        1.1591128888   -0.9687910633   -0.9756944378
O        2.0621335897   -2.1526924064    0.8700791312
O        4.0927669905   -1.1675915436   -2.2168891324
H        5.2720953391    1.6059342048    2.0863599328
H        6.7711740723    1.6724440772    0.1090976288
H        3.2161623779    0.2267323243    2.0359150005
H        6.2053686841    0.3665627461   -1.9088113241
H        1.4157840366   -1.3922627271   -1.9496847819
H        1.0486527329    0.1141997353   -1.0734571189
H        0.2091335532   -1.3948463647   -0.6416951039
H        4.8195656615   -1.0957420148   -2.8582404915
18   

C        5.0238361973    0.8999920615    1.2659797222
C        5.8416194653    0.9702153402    0.1386765760
C        3.8345499052    0.1689903836    1.2190311664
C        5.4646540085    0.3073212336   -1.0328081689
C        3.4536816969   -0.5034781805    0.0479737210
C        4.2747115922   -0.4279479432   -1.0907943577
C        2.1348636819   -1.2265628262    0.0548249545
C        1.1353179214   -1.0626733694   -1.0823055014
O        1.8274942007   -1.9241431991    1.0129604984
O        3.9434472943   -1.0671396003   -2.2503999501
H        5.3089641573    1.4111590286    2.1786758732
H        6.7657756513    1.5371828291    0.1735389627
H        3.2018534696    0.1189402872    2.0999340487
H        6.1098014135    0.3710747130   -1.9001601060
H        1.3051683080   -1.8365739098   -1.8352862312
H        1.2542594901   -0.0793807568   -1.5448699101
H        0.1156782276   -1.1523489325   -0.6980622254
H        4.6519625579   -0.9606614929   -2.9073073922
18   

C        5.0770858922    0.8538708239    1.2798328111
C        5.8709490398    0.9418144909    0.1379458795
C        3.8596999682    0.1714424311    1.2314795050
C        5.4437161404    0.3423581915   -1.0495379788
C        3.4201689122   -0.4326382186    0.0407205300
C        4.2257620062   -0.3456371215   -1.1122392355
C        2.0824425880   -1.1168180306    0.0737127527
C        1.1450247209   -1.1282066230   -1.1274519382
O        1.6868705618   -1.6163858788    1.1214236485
O        3.8643381103   -0.9313093944   -2.2907166118
H        5.4021335197    1.3140637828    2.2062138833
H        6.8168006841    1.4716842478    0.1745174311
H        3.2517159228    0.1132797655    2.1292577675
H        6.0745882080    0.4160725014   -1.9265513955
H        1.3817877822   -1.9792811786   -1.7712183380
H        1.2539717608   -0.2015531737   -1.6969044696
H        0.1083068434   -1.2131498596   -0.7905180759
H        4.5637841295   -0.8096121152   -2.9547052424
18   

C        5.0830098299    0.7998025503    1.3193374574
C        5.8609611852    0.8893163193    0.1682669647
C        3.8307047940    0.1846207058    1.2692036549
C        5.3831669694    0.3571647933   -1.0306945123
C        3.3329246644   -0.3496816010    0.0655402595
C        4.1299666488   -0.2644106979   -1.0982630736
C        1.9669680649   -0.9783938683    0.1183463243
C        1.1066664078   -1.2078727127   -1.1190034232
O        1.4736853313   -1.2520117208    1.2086311714
O        3.7350380835   -0.7845958191   -2.2960989650
H        5.4471614704    1.2072294037    2.2558395959
H        6.8338620213    1.3675767914    0.2066520560
H        3.2452422493    0.1312731462    2.1820301250
H        6.0042438688    0.4300993937   -1.9147457156
H        1.4613432139   -2.0904135445   -1.6576421453
H        1.1513422027   -0.3346738480   -1.7748359787
H        0.0656041988   -1.3687657839   -0.8255542909
H        4.4289763456   -0.6537211250   -2.9640895930
18   

C        5.1368197606    0.7417162983    1.3248051844
C        5.9095594429    0.8403128058    0.1720257120
C        3.8570325086    0.1876727448    1.2623507863
C        5.3966424924    0.3825852344   -1.0421945155
C        3.3234184494   -0.2794076574    0.0452144916
C        4.1148238317   -0.1761445457   -1.1239601914
C        1.9337491216   -0.8573044862    0.0966843421
C        1.2005330496   -1.4089625158   -1.1209809679
O        1.3396025054   -0.8958518344    1.1707119722
O        3.6851390518   -0.6003468697   -2.3470148979
H        5.5263533626    1.0945460016    2.2731866230
H        6.9041072921    1.2707884150    0.2201115223
H        3.2829163717    0.1269120789    2.1818019846
H        6.0121750432    0.4673545682   -1.9290721777
H        1.7624868520   -2.2430101772   -1.5489830231
H        1.0763611415   -0.6226347303   -1.8699042333
H        0.2104203446   -1.7704837802   -0.8294345100
H        4.3713632799   -0.4426378142   -3.0171390334
18   

C        5.1399417148    0.6652486346    1.3459473861
C        5.9096647770    0.7742043930    0.1910281750
C        3.8354123420    0.1734434769    1.2713793555
C        5.3676157606    0.3938528728   -1.0379942514
C        3.2784060294   -0.2209447857    0.0400085805
C        4.0604104928   -0.1001400235   -1.1308297774
C        1.8700857630   -0.7495810726    0.0729884152
C        1.2736310617   -1.6023570403   -1.0409367259
O        1.1817370469   -0.5623994570    1.0720154821
O        3.5850170541   -0.4302229510   -2.3663127604
H        5.5512228163    0.9613322633    2.3044992366
H        6.9234472629    1.1558849282    0.2485399816
H        3.2594732047    0.0975902913    2.1886606283
H        5.9783432588    0.4912400635   -1.9268869135
H        2.0021429701   -2.3446658449   -1.3768482550
H        0.9848882274   -0.9648486380   -1.8805891880
H        0.3865908873   -2.1271239510   -0.6754385328
H        4.2577060545   -0.2491429217   -3.0442430691
18   

C        4.6333768113    1.9329424153    0.1016786004
C        5.7639059313    1.1271494627   -0.0185698643
C        3.3673870202    1.3994544985   -0.1487914753
C        5.6227471560   -0.2114805720   -0.3929188120
C        3.2150583195    0.0531707736   -0.5233993714
C        4.3596343197   -0.7594388340   -0.6478089217
C        1.8128965991   -0.4423375250   -0.7404684171
C        1.3901683053   -1.8645637083   -0.3936949071
O        0.9522594038    0.3377799710   -1.1334834336
O        4.2780505653   -2.0667810623   -1.0307560018
H        4.7339946756    2.9734952179    0.3893264785
H        6.7477676095    1.5406581949    0.1757532601
H        2.4961276563    2.0397654275   -0.0490805642
H        6.5116931960   -0.8227483032   -0.4862601958
H        1.9515963132   -2.2216955972    0.4735349245
H        1.5804914064   -2.5231805089   -1.2450589951
H        0.3233530116   -1.8887810360   -0.1552784333
H        5.1679976810   -2.4495711208   -1.1106416766
18   

C        4.6038665284    1.9101860124    0.1632564178
C        5.7455799003    1.1228543499    0.0179765856
C        3.3485204632    1.3794519201   -0.1423504704
C        5.6254972847   -0.1946666194   -0.4332677664
C        3.2220406354    0.0596335647   -0.6014095864
C        4.3721697876   -0.7365978054   -0.7421822099
C        1.8346911296   -0.4603524828   -0.8603795496
C        1.3845613525   -1.8153209633   -0.3307932248
O        1.0270533710    0.2333182828   -1.4650992017
O        4.2955816967   -2.0249552527   -1.1863186345
H        4.6882542202    2.9331521929    0.5125741121
H        6.7213269989    1.5335920505    0.2545022524
H        2.4634031299    1.9974366713   -0.0263277635
H        6.5209616308   -0.7939294812   -0.5410024313
H        1.9340128011   -2.0605326140    0.5818687888
H        1.5752747735   -2.5855254087   -1.0825676382
H        0.3151880370   -1.7905126153   -0.1045748959
H        5.1867920101   -2.4005923157   -1.2837860685
18   

C        4.5677682036    1.8358735396    0.2279250396
C        5.7211097784    1.0771152709    0.0291872253
C        3.3209929032    1.3122003974   -0.1228594898
C        5.6201360020   -0.2049570673   -0.5187119604
C        3.2153089642    0.0315659743   -0.6802449048
C        4.3744688072   -0.7369888018   -0.8717093017
C        1.8424448056   -0.5069535345   -0.9982155475
C        1.3227358569   -1.7549965435   -0.2980263661
O        1.1161397421    0.0785887642   -1.7873617398
O        4.3077429704   -1.9915240318   -1.4050438415
H        4.6371519845    2.8311649145    0.6523985573
H        6.6905323634    1.4820474454    0.2993330341
H        2.4257928398    1.9064027712    0.0313098996
H        6.5229384535   -0.7844249594   -0.6661800971
H        1.5658832277   -1.7084860075    0.7665510759
H        1.7834344545   -2.6454578014   -0.7323369986
H        0.2375702133   -1.8244696746   -0.4126314067
H        5.2019926799   -2.3428406362   -1.5520979719
18   

C        4.6407452430    1.8267864127    0.3526210846
C        5.8060269429    1.0973516148    0.1184314282
C        3.4030623344    1.3038490689   -0.0309010369
C        5.7247281345   -0.1547729820   -0.4966322074
C        3.3155562498    0.0559228380   -0.6556509592
C        4.4872822522   -0.6831422882   -0.8816550972
C        1.9654372511   -0.5117718287   -1.0299057302
C        1.3704530290   -1.6467050509   -0.2089598633
O        1.3447822698   -0.0803508760   -1.9876716388
O        4.4351908726   -1.9127835202   -1.4723313279
H        4.6941747865    2.7990209062    0.8295826244
H        6.7687041167    1.5009334366    0.4135539640
H        2.4994924044    1.8767642002    0.1506254709
H        6.6351819955   -0.7148090960   -0.6699237487
H        1.2538511447   -1.3262846487    0.8294238051
H        2.0321280347   -2.5158529109   -0.2421382848
H        0.3926804256   -1.9285712611   -0.6093698246
H        5.3327485289   -2.2407703629   -1.6491179207
18   

C        4.6248892704    1.7745558782    0.4295401538
C        5.8108742143    1.0983048125    0.1447063636
C        3.4005361016    1.2315423130    0.0308123680
C        5.7631400194   -0.1218562258   -0.5345105040
C        3.3466797739    0.0168816565   -0.6579505931
C        4.5387635869   -0.6692658617   -0.9339328786
C        2.0198763456   -0.5797356977   -1.0753633099
C        1.2887905831   -1.5108247017   -0.1210728195
O        1.5206570610   -0.3175839679   -2.1559872953
O        4.5151574878   -1.8730340762   -1.5773386097
H        4.6524069414    2.7216788777    0.9565907122
H        6.7633749407    1.5175501355    0.4507926224
H        2.4818685269    1.7654946954    0.2502824206
H        6.6885635790   -0.6432196992   -0.7451353774
H        1.1277894705   -1.0074187156    0.8355406107
H        1.8905384450   -2.4085650934    0.0435628715
H        0.3221836203   -1.8001813648   -0.5427708197
H        5.4178807769   -2.1576902372   -1.7965585144
18   

C        4.6013855885    1.6757170113    0.5019553991
C        5.8138783826    1.0740237260    0.1664644127
C        3.3982152900    1.0905254321    0.0986739630
C        5.8143188547   -0.1140582495   -0.5688151119
C        3.3916856427   -0.0971020480   -0.6391016682
C        4.6117914268   -0.7049139195   -0.9729663880
C        2.0871838922   -0.7101778706   -1.0964170613
C        1.1356210263   -1.2997713545   -0.0663161325
O        1.7301550443   -0.6361832941   -2.2595425139
O        4.6386702264   -1.8760921113   -1.6734218870
H        4.5922985713    2.5995605459    1.0694278949
H        6.7500530092    1.5271053745    0.4746889693
H        2.4605692367    1.5735497506    0.3525743554
H        6.7604453741   -0.5765525699   -0.8208542117
H        1.0916672548   -0.6580178201    0.8170442300
H        1.4931199536   -2.2895005284    0.2299047052
H        0.1322829400   -1.3936059181   -0.4909324349
H        5.5465804983   -2.0886074978   -1.9453015141
18   

C        4.5873769335    1.5891786779    0.5710030642
C        5.8160857227    1.0573664218    0.1832784329
C        3.4013773660    0.9691332496    0.1695989583
C        5.8506140533   -0.0972989362   -0.6016723596
C        3.4262035409   -0.1879580558   -0.6189376908
C        4.6666469875   -0.7254585533   -1.0048188802
C        2.1378869441   -0.8202344679   -1.0829247623
C        1.0683741106   -1.1964381775   -0.0661122006
O        1.8879807669   -0.9476320896   -2.2702253857
O        4.7369425901   -1.8663152473   -1.7506789498
H        4.5521594569    2.4877255655    1.1768117035
H        6.7387814563    1.5386785140    0.4893629131
H        2.4546726530    1.4086709910    0.4640783498
H        6.8099936953   -0.5059996201   -0.8934520817
H        0.9027595549   -0.3783772542    0.6383451192
H        1.3913756920   -2.0829375100    0.4860613386
H        0.1274389223   -1.4194579549   -0.5769825517
H        5.6446561764   -2.0152495757   -2.0614424629
18   

C        4.5896341891    1.4929909948    0.6481591181
C        5.8229804780    1.0375990357    0.1887727466
C        3.4169433033    0.8414435645    0.2592721180
C        5.8756164258   -0.0743789990   -0.6531173828
C        3.4536729761   -0.2734179294   -0.5920953886
C        4.7060734453   -0.7363168881   -1.0453526052
C        2.1758319672   -0.9312762710   -1.0345160578
C        1.0531050196   -1.1592910177   -0.0315611930
O        1.9925979962   -1.2542376615   -2.1979606306
O        4.8118148698   -1.8395188786   -1.8419021183
H        4.5398555425    2.3567566856    1.3016830664
H        6.7356601021    1.5434716237    0.4851598858
H        2.4673310053    1.2240328732    0.6168935872
H        6.8402145119   -0.4256926839   -0.9976816301
H        0.5363877138   -0.2181183702    0.1714441568
H        1.4657304866   -1.5555584605    0.9000846749
H        0.3356777911   -1.8805305354   -0.4332036223
H        5.7172440240   -1.9336582783   -2.1785104960
18   

C        4.5826632156    1.4237069018    0.7108281179
C        5.8176382339    1.0461818818    0.1930186439
C        3.4274337081    0.7374722381    0.3308361422
C        5.8899833689   -0.0242298188   -0.6980375775
C        3.4775569990   -0.3374059328   -0.5740333023
C        4.7395327113   -0.7229813262   -1.0840154408
C        2.2133872515   -1.0303569648   -0.9864765866
C        1.0264261869   -1.0897589418   -0.0326453606
O        2.0871653499   -1.5527736810   -2.0846796626
O        4.8844434105   -1.7840944595   -1.9299148790
H        4.5174260521    2.2542804820    1.4048018263
H        6.7168346280    1.5792299894    0.4829620051
H        2.4800889478    1.0673826098    0.7423462254
H        6.8577378351   -0.3155375566   -1.0868881636
H        0.4810625271   -0.1429477561   -0.0592288694
H        1.3745465384   -1.2829995765    0.9855319641
H        0.3512050939   -1.8974032897   -0.3294580663
H        5.7934629638   -1.8355860963   -2.2650856436
18   

C        4.6207900283    1.3814590943    0.7150208286
C        5.8377373920    1.0479810673    0.1324740601
C        3.4647988220    0.6795402156    0.3686603171
C        5.8910279045    0.0068742617   -0.7919491468
C        3.4892121383   -0.3712249734   -0.5686232400
C        4.7405654623   -0.7083133153   -1.1476939624
C        2.2250232610   -1.0910941863   -0.9251415909
C        0.9827395989   -0.9537663882   -0.0512910110
O        2.1364666913   -1.8138890230   -1.9086446949
O        4.8848073466   -1.7305616635   -2.0401899914
H        4.5697222554    2.1894924655    1.4362837573
H        6.7377644609    1.5924496678    0.3975958299
H        2.5379597826    0.9820618959    0.8421447606
H        6.8462522484   -0.2483905649   -1.2335671226
H        0.5472085447    0.0407828164   -0.1775931684
H        1.2438556466   -1.1115398466    0.9984649040
H        0.2392608374   -1.7023748355   -0.3401062069
H        5.7951710047   -1.7736719187   -2.3721083106
18   

C        4.6296201126    1.3631536767    0.7326776820
C        5.8322206678    1.0850063655    0.0954469131
C        3.4864214599    0.6250096212    0.4213919426
C        5.8829987914    0.0661348373   -0.8527034765
C        3.5073892624   -0.4113221858   -0.5332159435
C        4.7452474035   -0.6839004992   -1.1766033261
C        2.2589105601   -1.1798849009   -0.8387197265
C        0.9501179803   -0.8554549084   -0.1252594656
O        2.2285397163   -2.0876898648   -1.6594186106
O        4.8890443232   -1.6621162784   -2.1171690376
H        4.5801025499    2.1545147849    1.4723126748
H        6.7226535096    1.6565268883    0.3347956252
H        2.5753353096    0.8835827835    0.9479434315
H        6.8262915213   -0.1410744617   -1.3425142254
H        0.6576814482    0.1772124246   -0.3326086040
H        1.0667094060   -0.9982212306    0.9522097620
H        0.1566413622   -1.5196081463   -0.4802676008
H        5.8023436574   -1.6989123741   -2.4413938127
