24   

C       -4.2534867305   -1.0923284439    5.2354965995
C       -4.4072107281   -0.5769577006    3.9335683985
C       -2.0772038579   -1.5831363973    4.7813877219
C       -2.2078640803   -1.0693933326    3.4642388725
C       -1.1513787710   -0.5771747403    1.2116694518
C       -0.0365808365   -0.5511808993    0.4173173485
C       -1.0318912658   -1.0975458541    2.5615122465
C       -0.9538949299    0.9615109376   -1.2966361337
C        1.3946553151    0.0113500338   -1.4857979877
N       -3.0894708825   -1.6007624893    5.6753550018
N       -3.4001027190   -0.5586914596    3.0426386511
N        0.1311845658    0.1350126058   -0.7389896955
O        0.0352575396   -1.5613237475    2.9578161253
H       -5.1062370010   -1.0767190035    5.9038372529
H       -5.3716286776   -0.1805678900    3.6384552350
H       -1.1226703509   -1.9852389265    5.1009307685
H       -2.0825222750   -0.1364654181    0.8856938221
H        0.8383900068   -1.0822088859    0.7849704623
H       -1.3010481469    1.6871233662   -0.5541548724
H       -1.7912520789    0.3274427967   -1.6055173775
H       -0.6035283858    1.5170446266   -2.1722551325
H        1.2649109603   -0.6738839504   -2.3298095874
H        2.1931995979   -0.3740857084   -0.8437879117
H        1.7117626285    0.9887514250   -1.8626121295
24   

C       -4.2321305272   -1.0184015259    5.2397913795
C       -4.4227832910   -0.6467574140    3.8945270682
C       -2.0484019973   -1.4872748828    4.7980482462
C       -2.2158691443   -1.1168179113    3.4377707948
C       -1.2022955628   -0.8069492570    1.1327491529
C       -0.0831200804   -0.7225167118    0.3445910135
C       -1.0511098473   -1.1927808280    2.5234116666
C       -0.9490054741    0.9947632334   -1.1926186879
C        1.3969194012    0.0508675328   -1.4444757012
N       -3.0456722498   -1.4429193096    5.7078434648
N       -3.4306696041   -0.6903548514    2.9878308349
N        0.1175053245    0.0964684538   -0.7163210281
O        0.0386582811   -1.5742498440    2.9448381090
H       -5.0741992179   -0.9582425947    5.9190584261
H       -5.4038796528   -0.3125551850    3.5781489345
H       -1.0758800132   -1.8224402788    5.1397949316
H       -2.1488443813   -0.4115996955    0.7929373566
H        0.7925923645   -1.2637230774    0.6955714575
H       -1.3280940860    1.6081127280   -0.3689514618
H       -1.7709777881    0.4115790126   -1.6201915603
H       -0.5674757836    1.6691425921   -1.9657356945
H        1.2836685688   -0.5341238780   -2.3630245065
H        2.1796440136   -0.4090695266   -0.8327745691
H        1.7255016213    1.0625943753   -1.7018601279
24   

C       -4.1910168689   -0.9196949565    5.2363422588
C       -4.4144874522   -0.6940150116    3.8640378025
C       -1.9946490238   -1.3391588937    4.8070351784
C       -2.1950694190   -1.1149879238    3.4196197743
C       -1.2221540780   -0.9951239950    1.0789230888
C       -0.1104440819   -0.8616522626    0.2803462004
C       -1.0389014641   -1.2300990674    2.4984524936
C       -0.9410768994    1.0288672036   -1.0562648220
C        1.3948266461    0.0869947018   -1.4009068035
N       -2.9815013148   -1.2450866172    5.7244561648
N       -3.4328839264   -0.7875213899    2.9497747811
N        0.1101841978    0.0671360986   -0.6809429263
O        0.0735508571   -1.5155441462    2.9360017372
H       -5.0262730147   -0.8260881514    5.9202237860
H       -5.4128722639   -0.4341711697    3.5322718722
H       -1.0041239537   -1.5966845856    5.1640360035
H       -2.1866164115   -0.6548085941    0.7295935737
H        0.7678852359   -1.4147012914    0.6056382887
H       -1.3372748670    1.5289731841   -0.1667139980
H       -1.7552453468    0.5141550180   -1.5765416898
H       -0.5383959441    1.7985803449   -1.7221755472
H        1.2829668157   -0.3940976270   -2.3780586319
H        2.1680899802   -0.4446672286   -0.8372177597
H        1.7354049173    1.1169993630   -1.5453450951
24   

C       -4.1565173609   -0.8107502984    5.2137467544
C       -4.4050936105   -0.7370209212    3.8292908540
C       -1.9466884770   -1.1666163756    4.7953983474
C       -2.1723505469   -1.0950275941    3.3957702996
C       -1.2278250986   -1.1769450052    1.0417766891
C       -0.1363085179   -1.0005074660    0.2132370898
C       -1.0210837146   -1.2459163426    2.4735240764
C       -0.9492253463    1.0298550297   -0.9038770780
C        1.3673009325    0.0944771491   -1.3771480198
N       -2.9274536345   -1.0268310134    5.7136069879
N       -3.4297173678   -0.8768528123    2.9143486136
N        0.0891567358    0.0159717419   -0.6496483034
O        0.1106332517   -1.4231202630    2.9183076055
H       -4.9881929749   -0.6875023777    5.8972956523
H       -5.4182351999   -0.5593629667    3.4881605419
H       -0.9410063867   -1.3390961342    5.1611107906
H       -2.2125005339   -0.9076099339    0.6865581613
H        0.7473755494   -1.5660503108    0.5001516473
H       -1.3437893304    1.4193151972    0.0400976931
H       -1.7671956330    0.5945088891   -1.4867934068
H       -0.5342390258    1.8725378677   -1.4657688982
H        1.2361293028   -0.2660324501   -2.4026232903
H        2.1343434725   -0.5154581852   -0.8893479302
H        1.7283594522    1.1272869783   -1.4035319222
24   

C       -4.1297901672   -0.7227602507    5.1689836245
C       -4.3949975853   -0.8061027829    3.7882352358
C       -1.9052629238   -0.9787909894    4.7545426291
C       -2.1476230759   -1.0648386506    3.3586285881
C       -1.2183900738   -1.3388691455    1.0146078211
C       -0.1552188538   -1.1293624677    0.1424300428
C       -0.9971777362   -1.2357045441    2.4386459039
C       -0.9374288062    1.0226746235   -0.7295731547
C        1.3308246430    0.0748106582   -1.3800926805
N       -2.8848433079   -0.8085792271    5.6689700161
N       -3.4208425469   -0.9767202959    2.8773252637
N        0.0728800027   -0.0445770503   -0.6234618472
O        0.1485306595   -1.2881103540    2.8791933480
H       -4.9616154036   -0.5834425378    5.8492573005
H       -5.4203952209   -0.7279339436    3.4463766849
H       -0.8873095700   -1.0498053462    5.1200530524
H       -2.2231962142   -1.1606152366    0.6580859174
H        0.7282629358   -1.7216795682    0.3685995373
H       -1.2950406875    1.3128657109    0.2636176902
H       -1.7840468740    0.6826133668   -1.3344457332
H       -0.5084662486    1.9118262294   -1.2022938340
H        1.1547137630   -0.1552775362   -2.4359304094
H        2.0876416389   -0.6163617825   -0.9956332147
H        1.7313550428    1.0898335639   -1.2960144285
24   

C       -4.1395051845   -0.9098356330    5.3196753280
C       -4.4542212921   -1.3095138506    4.0062841423
C       -2.1238814219   -0.1347671256    4.5978000823
C       -2.4161992645   -0.5334040759    3.2668630746
C       -1.6524061687   -0.7380593230    0.8556710597
C       -0.5977991070   -0.9828354996   -0.0419927085
C       -1.3905066287   -0.3283084912    2.2149040421
C       -0.2485673105    1.3597664972   -0.6109752552
C        0.9706257753   -0.4926869083   -1.8446787488
N       -2.9749585048   -0.3150309332    5.6310851696
N       -3.6098839659   -1.1256948862    2.9760117743
N       -0.0331895475   -0.0787168568   -0.8505829540
O       -0.2998973918    0.1556793568    2.5055157848
H       -4.8638020331   -1.0914809275    6.1048560178
H       -5.4090267596   -1.7866520107    3.8190607064
H       -1.1700911277    0.3330506078    4.8130353590
H       -2.5796717302   -1.2676206806    0.6869931300
H       -0.4874053781   -2.0190437780   -0.3480378405
H       -1.3169207329    1.5780482202   -0.5153263947
H        0.1383325123    1.9494736071   -1.4478196835
H        0.2669435503    1.6728723343    0.3027224321
H        0.7436462328   -0.0477629726   -2.8185397743
H        0.9815260113   -1.5806862995   -1.9642068660
H        1.9677123390   -0.1719627788   -1.5257715257
24   

C       -4.0863891476   -0.8308553676    5.3035149817
C       -4.4016690335   -1.3390952824    4.0283424677
C       -2.1120461425   -0.0356857951    4.4952340734
C       -2.4053768591   -0.5424654798    3.2014549542
C       -1.6704110245   -0.8971669345    0.8017764989
C       -0.6427459250   -1.0746836508   -0.1276012808
C       -1.4059907922   -0.3667819504    2.1185802547
C       -0.2830107068    1.3211274123   -0.5257095158
C        0.9838826204   -0.4431901647   -1.8308164760
N       -2.9418906581   -0.1714180321    5.5522652649
N       -3.5779937423   -1.2012801820    2.9743719827
N       -0.0356841461   -0.1021281923   -0.8251401556
O       -0.3404361079    0.1935398566    2.3611015872
H       -4.7935273044   -0.9797077966    6.1109190078
H       -5.3401775568   -1.8633351284    3.8915552187
H       -1.1754153915    0.4839891919    4.6612742877
H       -2.5508085456   -1.5165084930    0.7008857741
H       -0.5773037486   -2.0691777724   -0.5591449452
H       -1.3431273163    1.4969594176   -0.3178397330
H       -0.0086677543    1.9437450527   -1.3828493042
H        0.3118799724    1.6376835901    0.3367068970
H        0.8045653362    0.1125035217   -2.7565110337
H        0.9610477236   -1.5112873450   -2.0690272439
H        1.9804196185   -0.1962223195   -1.4504125118
24   

C       -4.0703856740   -0.7897550650    5.2711226613
C       -4.3644160624   -1.3798531907    4.0265455934
C       -2.1193422648    0.0206856837    4.4225996415
C       -2.3916741329   -0.5674420926    3.1587218192
C       -1.6434146842   -1.0349694144    0.7869596276
C       -0.6717114441   -1.1362251631   -0.2011565663
C       -1.3992329374   -0.4120430837    2.0656800810
C       -0.3063985985    1.2885270153   -0.4852148854
C        0.9922381396   -0.4174767800   -1.8290491618
N       -2.9481044287   -0.0816113974    5.4842481211
N       -3.5414212402   -1.2765574798    2.9681211363
N       -0.0237050764   -0.1245103156   -0.8044243313
O       -0.3601640847    0.2054860283    2.2814050032
H       -4.7760204161   -0.9137958490    6.0840153534
H       -5.2859398822   -1.9395721434    3.9177757197
H       -1.2012052257    0.5799613456    4.5609070546
H       -2.4818573961   -1.7153177792    0.7310845994
H       -0.6436281210   -2.0894047054   -0.7209865642
H       -1.3510379153    1.4228879435   -0.1879889021
H       -0.1335798854    1.9183314967   -1.3632359324
H        0.3462110845    1.6343163162    0.3224534154
H        0.8390809061    0.2146040109   -2.7093541200
H        0.9374264508   -1.4618584983   -2.1521104853
H        1.9928735341   -0.2333095706   -1.4246661492
24   

C       -4.0643885777   -0.7849829859    5.2646534635
C       -4.3173483843   -1.4485456862    4.0484275849
C       -2.1369537983    0.0621134101    4.3981845253
C       -2.3688228298   -0.5980747863    3.1619400237
C       -1.5839466990   -1.1410987087    0.8205544347
C       -0.6917623998   -1.1569314940   -0.2359213362
C       -1.3770794820   -0.4434855110    2.0676102065
C       -0.3212536785    1.2827330821   -0.4374753833
C        0.9796612146   -0.3796691193   -1.8267963193
N       -2.9744203510   -0.0219835424    5.4546132584
N       -3.4852383657   -1.3644744676    2.9954761563
N       -0.0133507653   -0.1221979762   -0.7701481082
O       -0.3744174277    0.2367585986    2.2640299826
H       -4.7759437584   -0.8959909669    6.0742610086
H       -5.2144286503   -2.0495998876    3.9573228346
H       -1.2457255236    0.6672772566    4.5180322638
H       -2.3751073514   -1.8778104672    0.8005267581
H       -0.6996475791   -2.0718372537   -0.8211707704
H       -1.3525600922    1.3873928292   -0.0868135969
H       -0.2127968936    1.9162985474   -1.3229862338
H        0.3619471369    1.6491580567    0.3351108114
H        0.8488979108    0.3238399310   -2.6550317077
H        0.8747766564   -1.3921306560   -2.2293335586
H        1.9908764873   -0.2710590554   -1.4215110107
24   

C       -4.0803566900   -0.7796118414    5.2844748337
C       -4.2724935172   -1.5101070150    4.0958524155
C       -2.1776774981    0.1225980519    4.4189111274
C       -2.3492543999   -0.6030279405    3.2096373832
C       -1.4985354885   -1.1997773682    0.9056888591
C       -0.6867210470   -1.1501980025   -0.2079793935
C       -1.3497780076   -0.4371435998    2.1234417667
C       -0.2497336712    1.2842115378   -0.3635484728
C        0.9918295856   -0.3811867406   -1.7937830058
N       -3.0333030079    0.0441857791    5.4611553188
N       -3.4217361795   -1.4327341220    3.0574218456
N        0.0381600647   -0.1236503713   -0.7009454782
O       -0.3944272619    0.3105050191    2.3072300542
H       -4.8046914039   -0.8878445160    6.0830490215
H       -5.1373490570   -2.1579217200    4.0141216994
H       -1.3216697192    0.7784878180    4.5280465335
H       -2.2439860524   -1.9829697444    0.9121912038
H       -0.7388806650   -2.0377589070   -0.8318714651
H       -1.2720296598    1.3979763568    0.0099302594
H       -0.1559317535    1.9163245475   -1.2517513923
H        0.4548539076    1.6456565134    0.3920691325
H        0.8280622546    0.3193388563   -2.6187520980
H        0.8769304550   -1.3953309522   -2.1893555416
H        2.0171510624   -0.2688963473   -1.4269523932
24   

C       -4.1095598060   -0.8449938014    5.2761570384
C       -4.2333897801   -1.6261371942    4.1109549786
C       -2.2482658410    0.1418642344    4.4130660378
C       -2.3522307302   -0.6326164761    3.2263931740
C       -1.4375818495   -1.2360624583    0.9483084519
C       -0.7074214669   -1.1301505869   -0.2149245612
C       -1.3507522965   -0.4327926589    2.1469945195
C       -0.1226653104    1.2774684057   -0.3200818492
C        0.9586015558   -0.4134262299   -1.8363406486
N       -3.1175709262    0.0462553734    5.4424779892
N       -3.3686629334   -1.5321333708    3.0855169590
N        0.0783114649   -0.1372382502   -0.6875251050
O       -0.4527364880    0.3838369749    2.3215892410
H       -4.8424198781   -0.9690853133    6.0645818453
H       -5.0560881368   -2.3275277606    4.0365479619
H       -1.4375537475    0.8542368101    4.5135601031
H       -2.1425702564   -2.0555797456    0.9707089172
H       -0.8187711528   -1.9918035742   -0.8668599797
H       -1.1366344798    1.4446562139    0.0561364326
H        0.0088302200    1.9215902360   -1.1948324419
H        0.6049216390    1.5799128750    0.4396800883
H        0.7075095766    0.2418024012   -2.6765666809
H        0.8568982129   -1.4493624504   -2.1750778618
H        2.0031769064   -0.2498420239   -1.5527743917
24   

C       -4.1611188137   -1.0384144612    5.2441375359
C       -4.0862942747   -1.9025122323    4.1350925369
C       -2.6517524902    0.3524666037    4.2581057530
C       -2.5567550994   -0.5028450154    3.1272619908
C       -1.5270759145   -0.9974824839    0.8717003549
C       -0.7970772749   -0.9363281863   -0.3019619378
C       -1.6409912070   -0.1278209898    2.0157443199
C        0.3771967867    1.2555290511   -0.2985083809
C        0.6943085689   -0.4091398017   -2.1546134656
N       -3.4475949114    0.0978973017    5.3195775106
N       -3.2958658565   -1.6493280361    3.0774291410
N        0.0823792326   -0.0751386148   -0.8552301653
O       -0.9877372641    0.9032111979    2.1186673568
H       -4.8183912395   -1.3025645330    6.0640833144
H       -4.6863944453   -2.8048836146    4.1331143785
H       -2.0612704572    1.2608116403    4.2886896273
H       -2.1367271664   -1.8886463362    0.9241414573
H       -0.9811506031   -1.8191684701   -0.9074421867
H        0.9058823629    1.8693979796   -1.0338672428
H        1.0159553614    1.1666206008    0.5855124672
H       -0.5468033765    1.7858885231   -0.0541112271
H        0.5012353325    0.3888112454   -2.8789070250
H        0.2836796271   -1.3370232936   -2.5651106602
H        1.7754269153   -0.5353706338   -2.0388370432
24   

C       -4.0071926465   -0.9154339677    5.3367597708
C       -3.7829016485   -1.9202721411    4.3759254943
C       -2.9579244818    0.5962799093    3.9962462814
C       -2.7171072844   -0.3997292374    3.0119642604
C       -1.7574556139   -1.0296602556    0.7596176500
C       -1.0039566311   -0.9402337189   -0.3901528568
C       -1.9841780122   -0.0257730684    1.7746067114
C        0.7453562534    0.7198093187    0.1865140219
C        0.3726949534   -0.0397985969   -2.1824408904
N       -3.5994557198    0.3528046328    5.1597221659
N       -3.1444240878   -1.6793233429    3.2173017756
N       -0.0712110578   -0.0422867246   -0.7774563231
O       -1.6252788633    1.1381876252    1.6326191081
H       -4.5268940989   -1.1778128413    6.2506332059
H       -4.1359953150   -2.9247624439    4.5775243194
H       -2.6128019401    1.6090760120    3.8231478806
H       -2.2746427535   -1.9698635495    0.8924401534
H       -1.1832055422   -1.7591587440   -1.0808741042
H        1.7824671616    0.7822723396   -0.1568037630
H        0.7567564509    0.2293245861    1.1647416901
H        0.3579632276    1.7381554679    0.2913454899
H        0.1518623699    0.9293780584   -2.6409554797
H       -0.1388173943   -0.8145619213   -2.7623880437
H        1.4491271808   -0.2292635582   -2.2436665207
24   

C       -3.9778113930   -0.9011338308    5.3083369275
C       -3.6835407371   -1.9396015793    4.4036891665
C       -2.9951647735    0.5969879886    3.9036002369
C       -2.6862147708   -0.4327322052    2.9748610739
C       -1.6850483990   -1.1161754510    0.7567956178
C       -1.0075441760   -0.9746170104   -0.4359365312
C       -1.9688567400   -0.0803336883    1.7229003558
C        0.8101660031    0.5708106287    0.2341430622
C        0.3965139267   -0.0232579437   -2.1818587748
N       -3.6384138679    0.3773708121    5.0708562932
N       -3.0431079273   -1.7224342584    3.2414328753
N       -0.0246743276   -0.1127598080   -0.7730684033
O       -1.6759867137    1.0935563772    1.5188080572
H       -4.4963419216   -1.1452198510    6.2279262270
H       -3.9832799128   -2.9507511569    4.6527838030
H       -2.7067202808    1.6177226078    3.6805381992
H       -2.1602907387   -2.0737159360    0.9192769979
H       -1.2272217032   -1.7516352504   -1.1623714764
H        1.8552123329    0.5949295862   -0.0892239672
H        0.7786913427    0.0449517045    1.1933122519
H        0.4693642300    1.6014929315    0.3740893248
H        0.0951329551    0.9427324408   -2.5995837394
H       -0.0600617841   -0.8157933870   -2.7831830335
H        1.4831670485   -0.1256463461   -2.2644920046
24   

C       -3.9594289795   -0.8557568194    5.3282666019
C       -3.5979430828   -1.9146437055    4.4729259268
C       -3.0232055257    0.6301635848    3.8795387707
C       -2.6487686726   -0.4201075380    2.9993906377
C       -1.5889240426   -1.1393006235    0.8193245903
C       -1.0172925371   -0.9482983975   -0.4253713325
C       -1.9398225760   -0.0829904797    1.7389328737
C        0.8515543438    0.5268159045    0.2534598649
C        0.3847301890    0.0027482899   -2.1741569850
N       -3.6764701080    0.4270172423    5.0441972385
N       -2.9462521768   -1.7139434390    3.3139528401
N        0.0032157822   -0.1335389960   -0.7582619303
O       -1.7102471628    1.0949884850    1.4814316656
H       -4.4846789988   -1.0870918696    6.2473394505
H       -3.8547389964   -2.9281218269    4.7579435573
H       -2.7818827586    1.6539091833    3.6176518600
H       -2.0061881081   -2.1166688255    1.0186321477
H       -1.2946436490   -1.6895436381   -1.1691878634
H        1.8915569897    0.5605692501   -0.0850009034
H        0.8350792595   -0.0220304823    1.2000370979
H        0.5106343653    1.5526638102    0.4247173117
H        0.0570694297    0.9751399047   -2.5558588037
H       -0.0745039594   -0.7813848160   -2.7843672294
H        1.4702786550   -0.0787636981   -2.2879250976
24   

C       -3.9707275876   -0.8505268299    5.3386806736
C       -3.5332875554   -1.9131928243    4.5244189760
C       -3.0766863417    0.6402189453    3.8683747123
C       -2.6277316356   -0.4138405622    3.0288401437
C       -1.4873712244   -1.1348547852    0.8876276936
C       -1.0306995169   -0.9030799689   -0.4034627538
C       -1.9192635627   -0.0760583985    1.7687748210
C        0.8846509798    0.5201998583    0.2307987991
C        0.3629804250   -0.0056151098   -2.1889489729
N       -3.7467233612    0.4366504345    5.0233769265
N       -2.8637924081   -1.7119296393    3.3757202765
N        0.0270637522   -0.1544699043   -0.7631780163
O       -1.7523497872    1.1034336480    1.4713020823
H       -4.5075130990   -1.0825596944    6.2508885859
H       -3.7455178097   -2.9301147596    4.8328873820
H       -2.8838186238    1.6671276920    3.5800129771
H       -1.8350299927   -2.1317757389    1.1205755276
H       -1.3837083228   -1.6089840808   -1.1495504464
H        1.9095863475    0.6009969254   -0.1439061697
H        0.9231408927   -0.0467803801    1.1660584993
H        0.5104558817    1.5282604764    0.4347328548
H        0.0770952999    0.9924192136   -2.5366784001
H       -0.1629530038   -0.7477330807   -2.7978412235
H        1.4373626289   -0.1452845080   -2.3442426420
24   

C       -4.0151154504   -0.8742196468    5.3464161040
C       -3.4929307166   -1.9224815199    4.5639852999
C       -3.1631432744    0.6425980668    3.8776543467
C       -2.6304662656   -0.3968502406    3.0698894379
C       -1.3889933995   -1.0804451659    0.9687662336
C       -1.0378564453   -0.8233023927   -0.3585044527
C       -1.9153736038   -0.0392283091    1.8196601056
C        0.9334998705    0.5336408642    0.1897307002
C        0.3413140821   -0.0337105124   -2.2078881867
N       -3.8547499673    0.4187647508    5.0160763920
N       -2.8010508359   -1.7007334720    3.4324577769
N        0.0577879911   -0.1661547357   -0.7693851303
O       -1.8121159542    1.1408131114    1.4955971454
H       -4.5664181701   -1.1227084258    6.2455387757
H       -3.6571466601   -2.9451119180    4.8827374895
H       -3.0214618606    1.6739946445    3.5759117889
H       -1.6554854517   -2.0952207515    1.2296670967
H       -1.4867326090   -1.4868782040   -1.0917909784
H        1.9241455231    0.6945023380   -0.2465622827
H        1.0676190921   -0.0599194100    1.0994968552
H        0.5087207751    1.5074368608    0.4526844408
H        0.1338184434    0.9899340676   -2.5363461194
H       -0.2790568134   -0.7167966165   -2.7966420264
H        1.3902345731   -0.2708744304   -2.4113044749
24   

C       -4.0763916282   -0.9511301875    5.3573641777
C       -3.4490090807   -1.9579446487    4.5980891223
C       -3.3017108692    0.6225645669    3.9054892080
C       -2.6649020440   -0.3748668514    3.1210419235
C       -1.3085930983   -0.9621513571    1.0583168571
C       -1.0323479562   -0.7064833314   -0.2967186934
C       -1.9521130029    0.0311661123    1.8850022836
C        1.0141662496    0.5436756195    0.1305665286
C        0.3155679563   -0.0752019949   -2.2292659203
N       -4.0076668421    0.3493346823    5.0241847307
N       -2.7415354443   -1.6864665267    3.4872638935
N        0.0921035585   -0.1630569018   -0.7768243905
O       -1.9406121423    1.2099652726    1.5408652049
H       -4.6349658670   -1.2391248408    6.2400664495
H       -3.5431209468   -2.9893094159    4.9171456093
H       -3.2329926207    1.6603097128    3.6001074345
H       -1.4570454357   -1.9930954840    1.3478429235
H       -1.6013716811   -1.3056360075   -1.0015631297
H        1.9520416984    0.7776173290   -0.3826735063
H        1.2551493612   -0.0805804179    0.9968256347
H        0.5631920680    1.4800227351    0.4748145624
H        0.2029858248    0.9613753424   -2.5633042075
H       -0.4036626140   -0.6925732581   -2.7767224681
H        1.3216825158   -0.4265637693   -2.4785801830
24   

C       -3.8459198899   -0.9261330252    5.3569009353
C       -2.9460115310   -1.7533646711    4.6571812868
C       -4.0507549353    0.4018241829    3.5183212605
C       -3.1456956866   -0.4164592654    2.7930509691
C       -1.8982447211   -0.8740691575    0.6325614903
C       -1.3021433039   -0.3520241987   -0.5107160412
C       -2.8067528553   -0.0504125972    1.3965498142
C        0.9574736438   -0.1695881838    0.4190362944
C        0.4000384237    0.7270152228   -1.8943878985
N       -4.4092010168    0.1589668609    4.7978758283
N       -2.5894972670   -1.5132236894    3.3831764597
N       -0.0270937566    0.0595036147   -0.6529545642
O       -3.2926194544    0.9538368620    0.8818678326
H       -4.0896156128   -1.1760829663    6.3826952831
H       -2.5234939009   -2.6133764424    5.1634166325
H       -4.4829294192    1.2701859321    3.0345406534
H       -1.3955311916   -1.6726458841    1.1598880680
H       -2.0036499146    0.0842468549   -1.2178856182
H        1.2272472425   -1.2295298636    0.4639738696
H        0.5510775804    0.1422459884    1.3865728951
H        1.8664517018    0.4121400864    0.2362354941
H        1.0314312679    1.5909679236   -1.6648353859
H       -0.4628795110    1.0854260448   -2.4646643807
H        0.9632606332    0.0269030420   -2.5199853176
24   

C       -3.9506864237   -0.9757585388    5.3483397050
C       -2.9333187829   -1.7094531263    4.7076210113
C       -4.2201538219    0.2848907280    3.4712460144
C       -3.1971490987   -0.4395181748    2.8051947460
C       -1.7983620649   -0.7910668878    0.7179543541
C       -1.2554028616   -0.2463725925   -0.4298881545
C       -2.8383411926   -0.0645586309    1.4161157633
C        1.0814749758   -0.2560594851    0.3249875214
C        0.4147099134    0.7616253243   -1.9076750572
N       -4.6063512654    0.0277595743    4.7398496193
N       -2.5487428601   -1.4549814226    3.4445794079
N        0.0357580774    0.0866061450   -0.6547459977
O       -3.4150063480    0.8647912772    0.8559288784
H       -4.2107122664   -1.2317892624    6.3686090816
H       -2.4407683606   -2.5066936167    5.2518619865
H       -4.7243235685    1.0898685306    2.9490395590
H       -1.2344977083   -1.5260531241    1.2748668852
H       -1.9758924257    0.2299000516   -1.0910412925
H        1.2637882276   -1.3354753492    0.3204831512
H        0.7821042788    0.0570208757    1.3303735864
H        2.0186337421    0.2541743779    0.0811790886
H        1.1364090755    1.5597068409   -1.7077422178
H       -0.4583261251    1.2133465505   -2.3894246672
H        0.8601640994    0.0403654383   -2.6005853577
24   

C       -4.0268246090   -1.0458075810    5.3525695180
C       -2.9123818955   -1.6761806694    4.7654184750
C       -4.3376434827    0.1690519286    3.4521069603
C       -3.2172468830   -0.4515694677    2.8398303219
C       -1.6902465153   -0.6684362830    0.8245126522
C       -1.2055934150   -0.1196954082   -0.3397044608
C       -2.8377482657   -0.0525357718    1.4631490945
C        1.1808649539   -0.3082653529    0.2266669298
C        0.4148153434    0.7711611512   -1.9436188136
N       -4.7525957598   -0.1178923274    4.7050462114
N       -2.4984275853   -1.3914573850    3.5181207011
N        0.0877957243    0.1209706189   -0.6632451466
O       -3.4875789736    0.8033048405    0.8667182216
H       -4.3057529249   -1.3207587996    6.3628713189
H       -2.3673865197   -2.4164252959    5.3393320103
H       -4.8968301013    0.9154625594    2.8997554949
H       -1.0792690315   -1.3488993592    1.4004516927
H       -1.9440435759    0.3754477445   -0.9663355298
H        1.2618045074   -1.4000223402    0.2256415389
H        1.0021683119    0.0417938197    1.2483824020
H        2.1358687695    0.1086512002   -0.1082955878
H        1.2184160263    1.5013572019   -1.8064894696
H       -0.4537050932    1.3018860885   -2.3465485681
H        0.7336112668    0.0198637051   -2.6734877442
24   

C       -4.1019886842   -1.1252865825    5.3346206183
C       -2.9029174395   -1.6437035899    4.8076956569
C       -4.4357138387    0.0490709635    3.4128309285
C       -3.2305410316   -0.4593689696    2.8608585027
C       -1.5919901629   -0.5338276721    0.9257402065
C       -1.1515387412   -0.0024913018   -0.2593363654
C       -2.8262820690   -0.0314188366    1.4999832321
C        1.2482087806   -0.3905030952    0.1313055391
C        0.4143558126    0.7300140572   -1.9916629294
N       -4.8823009318   -0.2746898288    4.6457171300
N       -2.4571685619   -1.3219935118    3.5804766936
N        0.1306334915    0.1237472106   -0.6797407314
O       -3.5314387320    0.7501996667    0.8654955235
H       -4.4028665511   -1.4247320383    6.3315707801
H       -2.3173480183   -2.3258092214    5.4128224018
H       -5.0379491435    0.7350117956    2.8282645957
H       -0.9497875509   -1.1672387782    1.5208061203
H       -1.8987065477    0.5062573728   -0.8642134024
H        1.2195931822   -1.4844518248    0.1631632764
H        1.1939830071    0.0046755866    1.1507289967
H        2.2076468448   -0.0840553038   -0.2972199141
H        1.2818830773    1.3939462420   -1.9253853443
H       -0.4357827066    1.3250595268   -2.3403247119
H        0.6174790028   -0.0531356319   -2.7293551540
24   

C       -4.2876172246   -1.1537654664    5.2364046199
C       -4.3654766770   -0.4344052191    4.0278026990
C       -2.1669710978   -1.7966563787    4.7140637868
C       -2.2217158278   -1.0788082838    3.4903044621
C       -1.0817599591   -0.3640804278    1.3403986046
C       -0.0069655727   -0.4473399251    0.4962869455
C       -1.0405879459   -1.0945406155    2.5940329725
C       -1.1367627569    0.4857723050   -1.4835231814
C        1.3048950696   -0.2126311009   -1.5555534575
N       -3.1902213243   -1.8425765639    5.5944142689
N       -3.3474446236   -0.3880122146    3.1504090011
N        0.0416192895   -0.0866183743   -0.8087986407
O       -0.0342096189   -1.7227778805    2.9156953958
H       -5.1450285937   -1.1496500406    5.8989252300
H       -5.2785081242    0.1012056101    3.7958259532
H       -1.2648784012   -2.3407832037    4.9691809078
H       -1.9844444673    0.1534171780    1.0490733744
H        0.8897721295   -0.9187720137    0.8916979049
H       -1.3798935720    1.4633605907   -1.0547752874
H       -1.9979425491   -0.1819399557   -1.3794255909
H       -0.9413884630    0.6193368559   -2.5522011798
H        1.1161541550   -0.6026737261   -2.5605951752
H        1.9899829987   -0.9028362140   -1.0528742311
H        1.7914921763    0.7649007542   -1.6354551109
24   

C       -4.2752461995   -1.1565188416    5.2388800159
C       -4.3921389314   -0.5144206042    3.9905677570
C       -2.1137227262   -1.6876024758    4.7603119844
C       -2.2076025262   -1.0471801101    3.4965790207
C       -1.1081744482   -0.3966032440    1.3068941756
C       -0.0100437265   -0.4225271490    0.4893267757
C       -1.0238906758   -1.0417877648    2.6034543446
C       -1.0194911675    0.8580533111   -1.3553272468
C        1.3436782558   -0.0572063941   -1.5146177490
N       -3.1373216778   -1.7495687278    5.6392706497
N       -3.3736491841   -0.4517233794    3.1147271132
N        0.1003436170    0.1199367658   -0.7447931056
O        0.0175958667   -1.5871749490    2.9624760457
H       -5.1355491516   -1.1711829183    5.8974908443
H       -5.3368505665   -0.0544989436    3.7254092805
H       -1.1799705911   -2.1565853922    5.0485622642
H       -2.0258357239    0.0857367149    1.0025755766
H        0.8708504295   -0.9388040755    0.8636103487
H       -1.3293209401    1.6845844537   -0.7078708414
H       -1.8686145786    0.1874026910   -1.5221930545
H       -0.7216709268    1.2788315327   -2.3209404997
H        1.1848540823   -0.7785455921   -2.3227125990
H        2.1525893582   -0.4258526124   -0.8756838841
H        1.6643221739    0.8978130879   -1.9425535121
