15   

C        2.3735518359   -0.8682187565   -1.0115462200
C        1.3057966043   -1.3292230266   -0.2891817577
C        3.4829494026   -1.6362979520   -1.7090710822
C       -0.8570291951   -0.4582530669   -1.1962184152
C       -0.0969922014   -1.7006085788   -0.7412463602
H        2.7533428784    0.0803051987   -0.6467496526
H        1.2954305905   -0.9876435325    0.7404644923
H        4.3815143033   -1.0178285544   -1.7932816677
H        3.1605670901   -1.9281845722   -2.7127266156
H        3.7284360509   -2.5389983993   -1.1419396153
H       -0.3412452865    0.0197281809   -2.0347267610
H       -0.9340617393    0.2590726441   -0.3728273315
H       -1.8671068642   -0.7332731918   -1.5148002707
H       -0.6347592842   -2.1727145544    0.0872064668
H       -0.0377138079   -2.4221753633   -1.5623295214
15   

C        2.4056407375   -0.8120111949   -0.9165608482
C        1.3162227935   -1.2303407743   -0.2171538569
C        3.3824520756   -1.6530253005   -1.7135338488
C       -0.8738718647   -0.4707910322   -1.1482128027
C       -0.0284022049   -1.6789077656   -0.7560494253
H        2.9111760873    0.0291426004   -0.4539997667
H        1.2407381181   -0.8365264716    0.7909610747
H        3.3328553066   -1.3803554676   -2.7716825571
H        3.1388298439   -2.7149800305   -1.6124963823
H        4.4030245432   -1.4913911425   -1.3539747423
H       -0.3677415491    0.1125253216   -1.9237552535
H       -1.0442580839    0.1706219584   -0.2776871038
H       -1.8431323720   -0.8014985399   -1.5336575011
H       -0.5525778179   -2.2614699068    0.0082368555
H        0.1227388450   -2.3224177227   -1.6287441332
15   

C        2.4586566581   -0.7799995848   -0.8202286628
C        1.3375753500   -1.1406327736   -0.1543898557
C        3.3012202945   -1.6572509270   -1.7196575644
C       -0.8882408840   -0.4953012083   -1.0789147108
C        0.0474580380   -1.6562206776   -0.7552464257
H        3.0360129477    0.0000914895   -0.3353698848
H        1.2102027108   -0.6945985916    0.8263754492
H        3.2220160968   -1.3147864894   -2.7555232346
H        2.9620441303   -2.6962289951   -1.6656162713
H        4.3504663895   -1.6151795653   -1.4126526016
H       -0.4171411505    0.1818475548   -1.7984396388
H       -1.1276150082    0.0651985824   -0.1697679315
H       -1.8190072423   -0.8743337345   -1.5118637711
H       -0.4380351977   -2.3371518404   -0.0489927316
H        0.2643268391   -2.2162824588   -1.6706144123
15   

C        2.5138212965   -0.7852841050   -0.7248321681
C        1.3526283772   -1.0710969314   -0.1035017083
C        3.2401527660   -1.6516475141   -1.7252620886
C       -0.8781750509   -0.5175540083   -1.0651272806
C        0.1027505786   -1.6384091936   -0.7347261905
H        3.1498569516   -0.0735085035   -0.2093323300
H        1.1983797323   -0.5975029173    0.8603163199
H        3.1345825716   -1.2309821093   -2.7295174500
H        2.8316556257   -2.6667332437   -1.7228985628
H        4.3038089930   -1.7042836399   -1.4747166557
H       -0.4242877295    0.1868729290   -1.7694374031
H       -1.1598881312    0.0227975013   -0.1559680428
H       -1.7823854334   -0.9336248218   -1.5198441346
H       -0.3646357416   -2.3474888619   -0.0441602289
H        0.3577776273   -2.1789794010   -1.6517464851
15   

C        2.5561628544   -0.8140512040   -0.6487534651
C        1.3571190314   -1.0128242777   -0.0739639107
C        3.1924969110   -1.6343942060   -1.7421561437
C       -0.8447342232   -0.5311858504   -1.1277073704
C        0.1331565492   -1.6246623341   -0.7090658792
H        3.2374830328   -0.1715465735   -0.1011652059
H        1.1936840453   -0.5269115678    0.8821400863
H        3.0575291538   -1.1385982146   -2.7078647499
H        2.7451088483   -2.6315309869   -1.7895324531
H        4.2637613860   -1.7465817155   -1.5507624270
H       -0.3761797855    0.1364650174   -1.8577043659
H       -1.1542157583    0.0565150651   -0.2577530303
H       -1.7339612268   -0.9786032428   -1.5822650542
H       -0.3506707118   -2.2952443002    0.0081286875
H        0.4120463395   -2.2164082088   -1.5861626001
15   

C        2.5950509397   -0.8605971049   -0.5973056442
C        1.3552621282   -0.9499445984   -0.0894228483
C        3.1754760651   -1.6369920841   -1.7499758663
C       -0.8783652524   -0.5408978994   -1.1032914289
C        0.1460719659   -1.6006631993   -0.7101709436
H        3.3039240782   -0.2763035230   -0.0202720965
H        1.1798168783   -0.4216865105    0.8417871380
H        3.0192043617   -1.0911164193   -2.6850076081
H        2.7076246942   -2.6224218104   -1.8301665906
H        4.2499496356   -1.7792226151   -1.6013447981
H       -0.4468947623    0.1484245944   -1.8360525592
H       -1.1948512925    0.0289595303   -0.2240994095
H       -1.7578947753   -1.0175846256   -1.5469038841
H       -0.3011716358   -2.2934638683    0.0096419969
H        0.4284218417   -2.1752251927   -1.5971931027
15   

C        2.6215789214   -0.9209637067   -0.5384793496
C        1.3553191364   -0.8997938485   -0.0946607957
C        3.1620882680   -1.6334934833   -1.7499135504
C       -0.8295033252   -0.5455169327   -1.2310782476
C        0.1518582677   -1.5814066917   -0.6922834593
H        3.3363726624   -0.3265670084    0.0206388732
H        1.1745637697   -0.3307524618    0.8111272511
H        4.0925747966   -1.1607202792   -2.0777857565
H        2.4456095388   -1.5903096459   -2.5754087066
H        3.3657707800   -2.6808959050   -1.5086516583
H       -0.3558758785    0.0545054704   -2.0143687190
H       -1.1604835848    0.1189923206   -0.4266841410
H       -1.7062866192   -1.0458006278   -1.6536840313
H       -0.3412158507   -2.1804788244    0.0798300384
H        0.4504992795   -2.2599367794   -1.4968825431
15   

C        2.6382275601   -0.9874289253   -0.4970521143
C        1.3537414163   -0.8493666195   -0.1314755761
C        3.1723854545   -1.6360527949   -1.7471626238
C       -0.8577543554   -0.5480854800   -1.2343750779
C        0.1500260188   -1.5587287161   -0.6965001268
H        3.3644684094   -0.4463539083    0.1001824969
H        1.1705729341   -0.2397616816    0.7470489550
H        4.1017549950   -1.1473242109   -2.0542153249
H        2.4521029133   -1.5500668293   -2.5660910950
H        3.3761588466   -2.6947476870   -1.5617714633
H       -0.4085286013    0.0455017918   -2.0366928808
H       -1.1848996065    0.1249565853   -0.4355481394
H       -1.7338311150   -1.0697626800   -1.6319002051
H       -0.3201268928   -2.1514095556    0.0946202590
H        0.4453576467   -2.2464061553   -1.4946613970
15   

C        2.6493203642   -1.0582482440   -0.4696822067
C        1.3591320631   -0.8036372281   -0.1897052184
C        3.2062787545   -1.6417884333   -1.7433231483
C       -0.9068756761   -0.5466106259   -1.1964045117
C        0.1462692589   -1.5359306173   -0.7078342462
H        3.3755064457   -0.5663804559    0.1687806186
H        1.1768985746   -0.1405048315    0.6493972160
H        4.1433376877   -1.1419812742   -2.0060323595
H        2.5010622038   -1.5097646667   -2.5693709171
H        3.4017785880   -2.7099547059   -1.6110371384
H       -0.5059829256    0.0609205779   -2.0137838797
H       -1.2159804247    0.1148108481   -0.3809356638
H       -1.7863166594   -1.0871020762   -1.5599756567
H       -0.2760618460   -2.1444032732    0.0981457617
H        0.4251983415   -2.2101099527   -1.5235018782
15   

C        2.6547186892   -1.1314100546   -0.4575390815
C        1.3706826846   -0.7701340745   -0.2670733459
C        3.2662222370   -1.6460291784   -1.7389919245
C       -0.9578439043   -0.5448059809   -1.1435513924
C        0.1383665772   -1.5181182867   -0.7216335366
H        3.3674023504   -0.6843771266    0.2274479560
H        1.1955434505   -0.0460341596    0.5216825248
H        4.2126635121   -1.1338413204   -1.9360769162
H        2.5930026808   -1.4700573401   -2.5835047610
H        3.4566212917   -2.7201259894   -1.6570525283
H       -0.6135148821    0.0747312025   -1.9775885679
H       -1.2335662603    0.1058590576   -0.3078081927
H       -1.8460240775   -1.0990113634   -1.4625365627
H       -0.2268295919   -2.1419315517    0.1003905058
H        0.3862232917   -2.1776778068   -1.5593406121
15   

C        2.6322763615   -1.2128152787   -0.4682338122
C        1.3606485415   -0.7654941447   -0.3585020237
C        3.3354913951   -1.6467012173   -1.7357276380
C       -1.0257913681   -0.5335503805   -1.0812386870
C        0.0932923599   -1.5084043168   -0.7276899144
H        3.3148529392   -0.8082308069    0.2716699761
H        1.2063472774    0.0181375569    0.3759047738
H        4.2891054557   -1.1201818021   -1.8374887370
H        2.7170927737   -1.4231102587   -2.6104224834
H        3.5274633167   -2.7232099882   -1.7064418326
H       -0.7344542832    0.0817506526   -1.9383310807
H       -1.2459016768    0.1210011148   -0.2322200337
H       -1.9338400129   -1.0866939568   -1.3405612135
H       -0.2182565357   -2.1316522541    0.1165652392
H        0.2872769786   -2.1674078558   -1.5801303096
15   

C        2.6108296485   -1.2923018076   -0.5147432211
C        1.3471520620   -0.7909623224   -0.4775920429
C        3.4428644883   -1.6432349386   -1.7320459790
C       -1.0950188515   -0.5178311456   -0.9946723667
C        0.0363365049   -1.5098985856   -0.7402647845
H        3.2411007179   -0.9170113968    0.2847045797
H        1.2236655219    0.0615355918    0.1822360339
H        4.3929610098   -1.1011423662   -1.7109027441
H        2.9065543030   -1.3757541857   -2.6475642703
H        3.6487569170   -2.7174293248   -1.7465523787
H       -0.8674446319    0.0976777547   -1.8707707953
H       -1.2351528852    0.1352981769   -0.1278605999
H       -2.0289723816   -1.0573221976   -1.1802388616
H       -0.2110181983   -2.1375367622    0.1218048163
H        0.1491760774   -2.1627976879   -1.6117747040
15   

C        2.5863756649   -1.3695261418   -0.5843765006
C        1.3240329274   -0.8417411049   -0.6107319495
C        3.5568764243   -1.6376178147   -1.7219315120
C       -1.1542359447   -0.4992736105   -0.9064722232
C       -0.0303147194   -1.5212723827   -0.7560024768
H        3.1352790768   -1.1087225648    0.3144307187
H        1.2379781629    0.0739786438   -0.0351123619
H        3.4482867671   -0.8722414956   -2.4960084974
H        3.3520379565   -2.6167996273   -2.1643050953
H        4.5878530620   -1.6247674001   -1.3559395271
H       -0.9889328425    0.1143664467   -1.7977688002
H       -1.2011714672    0.1530009237   -0.0290745635
H       -2.1144014851   -1.0139729584   -1.0108126947
H       -0.2159744863   -2.1504867420    0.1202845691
H       -0.0135566810   -2.1690734678   -1.6383041057
