27   

C       -4.3482427986    0.0095629943    1.5992893181
C       -3.0710161919   -1.4971825999    0.2018905560
C       -3.1782156619    0.3869976596    2.2624186515
C       -1.8982541324   -1.0996932353    0.8559290477
C       -4.3105141943   -0.9378493902    0.5599144418
C       -1.9397887515   -0.1620455085    1.9029948554
C       -0.6837358483    1.5177428355    3.9256110796
C        0.8138464311    0.7248318857    1.6896274804
C       -5.5347088794   -1.3838027287   -0.1859329166
C       -6.8028352728   -0.5595854737   -0.0601155550
C       -0.1345389660   -1.2119451963    3.5232605691
O       -5.5037868037   -2.3360930361   -0.9557439421
S       -0.4131290546    0.3901059658    2.7444158571
H       -5.2817907132    0.4643286915    1.9103219777
H       -3.0106907550   -2.2291510655   -0.5979714186
H       -3.2326049380    1.1275678776    3.0550785245
H       -0.9491336261   -1.5214793813    0.5402318408
H       -0.0837127780    2.4173458588    3.9547509242
H       -1.4399743590    1.3560631563    4.6813749801
H        1.4361022569    1.5943883018    1.8548526803
H        0.9855498727    0.1015745285    0.8234171806
H       -6.5800508585    0.5001902738   -0.2099609162
H       -7.2475212342   -0.7078280667    0.9272881739
H       -7.5235201122   -0.8733653677   -0.8209048263
H        0.7450678636   -1.1348889187    4.1653842957
H       -1.0052311761   -1.4762985939    4.1261288416
H        0.0395689765   -1.9684647654    2.7571591730
27   

C       -4.3808273367   -0.0640301524    1.6964848044
C       -3.1022815143   -1.5161853936    0.2418563896
C       -3.2038904800    0.3325468576    2.3361335921
C       -1.9233059938   -1.0994846013    0.8722229608
C       -4.3439849782   -0.9957302678    0.6453361776
C       -1.9614797338   -0.1795896793    1.9356667292
C       -0.6945172896    1.5012313204    3.9502125192
C        0.7606794876    0.7825388597    1.6619574139
C       -5.5745229927   -1.4432099856   -0.0897748728
C       -6.7410593191   -0.4778210177   -0.1889649791
C       -0.0857321674   -1.2072809396    3.4894056439
O       -5.5854883901   -2.4799845211   -0.7416893828
S       -0.4270723651    0.3988695257    2.7447553044
H       -5.3214553769    0.3592708099    2.0307741463
H       -3.0482213947   -2.2319734633   -0.5729586664
H       -3.2560686073    1.0595215443    3.1414181953
H       -0.9723048806   -1.4911739200    0.5249911247
H       -0.1184326357    2.4164356407    3.9764959446
H       -1.4243226125    1.3076171475    4.7242398439
H        1.3633553694    1.6665079962    1.8232545724
H        0.9256223349    0.1765409586    0.7822965960
H       -6.3761700471    0.5378699975   -0.3639257134
H       -7.3246151076   -0.5036708658    0.7347496555
H       -7.3874942164   -0.7640496954   -1.0236527695
H        0.8090136377   -1.1172215234    4.1085106128
H       -0.9323263386   -1.5038922113    4.1112936778
H        0.0866319712   -1.9469092059    2.7065928512
27   

C       -4.3875705550   -0.1039795293    1.7675960349
C       -3.0968796649   -1.5019768800    0.2700915651
C       -3.2110747382    0.3075972317    2.3988532225
C       -1.9187346436   -1.0702861393    0.8917521211
C       -4.3422949139   -1.0194268138    0.7050634066
C       -1.9629969357   -0.1708120769    1.9728615867
C       -0.7045156661    1.5014210495    3.9997285997
C        0.7343918674    0.8523925392    1.6805608294
C       -5.5737723868   -1.4689099375   -0.0301289147
C       -6.6083132631   -0.4171163194   -0.3813399113
C       -0.0461271719   -1.1859746856    3.4840646688
O       -5.6368977753   -2.5813725654   -0.5377575260
S       -0.4303255948    0.4254121438    2.7722532928
H       -5.3363730869    0.2911917437    2.1136797853
H       -3.0431784221   -2.2013588203   -0.5588133238
H       -3.2681356438    1.0197351435    3.2169559563
H       -0.9640581195   -1.4339505570    0.5246904676
H       -0.1476170450    2.4281529656    4.0340180680
H       -1.4192564899    1.2790672149    4.7800778724
H        1.3202315366    1.7463153079    1.8488666147
H        0.9008828828    0.2643870374    0.7890748346
H       -6.1139471198    0.5193755799   -0.6533961422
H       -7.2679532586   -0.2450664753    0.4727298731
H       -7.2084796429   -0.7562416980   -1.2305456939
H        0.8551620274   -1.0883295913    4.0924372786
H       -0.8777950893   -1.5105676790    4.1121088258
H        0.1301762753   -1.9084410499    2.6862412583
27   

C       -4.4124576525   -0.1441431761    1.8727964195
C       -3.1494055623   -1.4691470829    0.2894700850
C       -3.2230479110    0.2745101464    2.4742024505
C       -1.9581641804   -1.0311689021    0.8814501267
C       -4.3862697554   -1.0286118448    0.7852454381
C       -1.9816708480   -0.1653767706    1.9906285123
C       -0.6847397171    1.4779881405    4.0170092500
C        0.6901170537    0.9055652120    1.6391530808
C       -5.6419919912   -1.4758773783    0.0858991540
C       -6.5306625868   -0.3907090430   -0.4878215952
C       -0.0050749913   -1.1863946981    3.4161704237
O       -5.7961829511   -2.6422420913   -0.2513939099
S       -0.4336753644    0.4357142475    2.7559542346
H       -5.3583801828    0.2187171039    2.2601200641
H       -3.1155636132   -2.1440437415   -0.5603060352
H       -3.2655729741    0.9610737327    3.3147240935
H       -1.0100189739   -1.3641344218    0.4708857329
H       -0.1404649090    2.4119672663    4.0566239790
H       -1.3713879631    1.2263180751    4.8135348065
H        1.2678734435    1.8041313604    1.8106517597
H        0.8381063902    0.3406089924    0.7297155752
H       -5.9178108385    0.4120955174   -0.9064694122
H       -7.1726240238    0.0169462662    0.2968147529
H       -7.1586417536   -0.8051404798   -1.2815992408
H        0.9138616216   -1.0904914682    3.9978244501
H       -0.8117405884   -1.5375394779    4.0623285171
H        0.1548885145   -1.8872639405    2.5959446855
27   

C       -4.4162454106   -0.1440536091    1.9956560965
C       -3.2100508022   -1.4342683336    0.3439659231
C       -3.2076248134    0.2645304561    2.5641622725
C       -1.9986351573   -1.0070456668    0.9026275110
C       -4.4280687429   -1.0032668278    0.8886396229
C       -1.9836662150   -0.1632875874    2.0288349820
C       -0.6196547031    1.4382283484    4.0442772880
C        0.6720138298    0.9209767381    1.6078989370
C       -5.7204695383   -1.4390049440    0.2419886151
C       -6.4470653211   -0.3930635208   -0.5772041361
C        0.0428623341   -1.2112174695    3.3622470012
O       -6.0147085337   -2.6225846770    0.1468241115
S       -0.4108358255    0.4239833436    2.7530683704
H       -5.3498834731    0.2059152217    2.4229354808
H       -3.2063698430   -2.0949271894   -0.5172213324
H       -3.2221996410    0.9327875194    3.4202453640
H       -1.0650412072   -1.3318768112    0.4539880161
H       -0.0768164138    2.3729823592    4.0849240507
H       -1.2771631136    1.1671712159    4.8588670481
H        1.2530718727    1.8176202481    1.7783555691
H        0.7895190558    0.3759285178    0.6820451888
H       -5.7264886027    0.2230133070   -1.1217725216
H       -7.0406514186    0.2457407923    0.0813448228
H       -7.1116895390   -0.8792976434   -1.2969248140
H        0.9806220298   -1.1257401539    3.9147546495
H       -0.7409373442   -1.5787174044    4.0272211124
H        0.1765010129   -1.8933719441    2.5218131451
27   

C       -4.4218069858   -0.1299592680    2.0714730984
C       -3.2555117368   -1.3273542539    0.3272788027
C       -3.2015280735    0.2527988141    2.6321865142
C       -2.0313406041   -0.9274019741    0.8792828208
C       -4.4606999716   -0.9138963362    0.9108675281
C       -1.9902491836   -0.1401257965    2.0447420455
C       -0.5783590583    1.3797828739    4.0917510606
C        0.6633351373    0.9460464764    1.6129444486
C       -5.7796197262   -1.3516149503    0.3156984732
C       -6.3687779973   -0.4433651550   -0.7417305889
C        0.0540108627   -1.2454055064    3.2988717140
O       -6.3777730291   -2.3378549737    0.7217117655
S       -0.4011806741    0.4137089710    2.7596947670
H       -5.3476876712    0.1801809655    2.5446306870
H       -3.2667645063   -1.9500150301   -0.5611266703
H       -3.1983905797    0.8705424766    3.5254637281
H       -1.1074914065   -1.2306380563    0.3966046500
H       -0.0281058053    2.3087565140    4.1572572313
H       -1.2229047818    1.0830125871    4.9077491579
H        1.2535618506    1.8321512510    1.8056620336
H        0.7602182002    0.4351470434    0.6655469432
H       -5.7593938121   -0.4869624314   -1.6480280458
H       -6.3947345329    0.5864338943   -0.3757403858
H       -7.3876031106   -0.7618855292   -0.9800692452
H        1.0031190340   -1.1858010686    3.8351609566
H       -0.7187512560   -1.6325471615    3.9656743593
H        0.1660689951   -1.8967397671    2.4312996846
27   

C       -4.4381840680   -0.1044271472    2.1163041638
C       -3.2957234790   -1.2187368276    0.3057521522
C       -3.2118800498    0.2650099811    2.6719509220
C       -2.0647070990   -0.8327949593    0.8531126844
C       -4.4952186106   -0.8308238447    0.9190062281
C       -2.0084843107   -0.0931410949    2.0483278585
C       -0.5688465419    1.3602510600    4.1262904815
C        0.6429074138    1.0032943421    1.6199713803
C       -5.8240149354   -1.2863909270    0.3672960829
C       -6.3018510717   -0.6052973810   -0.8974944316
C        0.0479126914   -1.2375324406    3.2424054778
O       -6.5890047788   -1.9668726018    1.0367801297
S       -0.4109104343    0.4383317494    2.7610669856
H       -5.3590100153    0.1686395585    2.6218693332
H       -3.3141639117   -1.8101209010   -0.6034179913
H       -3.1990291154    0.8418353808    3.5920556945
H       -1.1467803415   -1.1120611069    0.3452939435
H       -0.0126386195    2.2835118538    4.2170120960
H       -1.2071692218    1.0404294121    4.9384706903
H        1.2400488460    1.8794961833    1.8353431032
H        0.7260718343    0.5240407252    0.6549388767
H       -5.8036616072   -1.0440856854   -1.7654164928
H       -6.0749176000    0.4633143828   -0.8545388887
H       -7.3828194286   -0.7332312937   -1.0039125259
H        1.0038132684   -1.1961551520    3.7682499582
H       -0.7170570801   -1.6439616920    3.9067473963
H        0.1475044515   -1.8616312371    2.3535725590
27   

C       -4.4480313648   -0.0620223509    2.1443858830
C       -3.3335113577   -1.1196901758    0.2851788194
C       -3.2141372763    0.2880608548    2.6950248271
C       -2.0943823972   -0.7526114161    0.8277437911
C       -4.5260980413   -0.7493738575    0.9242020106
C       -2.0202011947   -0.0515504349    2.0446662014
C       -0.5494909867    1.3308140071    4.1502096086
C        0.6273923330    1.0554957851    1.6170612068
C       -5.8642697420   -1.1891262629    0.3924812833
C       -6.2258831995   -0.7560313169   -1.0135567274
C        0.0510711559   -1.2359084948    3.1728474479
O       -6.7240953004   -1.6373106301    1.1391851941
S       -0.4124949997    0.4550809164    2.7527487154
H       -5.3609142477    0.1964706135    2.6721075320
H       -3.3612015843   -1.6831870076   -0.6411452671
H       -3.1886825876    0.8352884491    3.6327870296
H       -1.1837620859   -1.0169434896    0.2991995180
H        0.0111692710    2.2486792347    4.2650041621
H       -1.1788759554    0.9860188003    4.9591526762
H        1.2302708866    1.9221844584    1.8538968159
H        0.6950469320    0.6096359441    0.6349769827
H       -5.7534082673   -1.4207887443   -1.7406724178
H       -5.8869628672    0.2687972110   -1.1871279979
H       -7.3106069734   -0.7959524103   -1.1477624392
H        1.0142874425   -1.2121482948    3.6863096632
H       -0.7048794337   -1.6630511861    3.8345124116
H        0.1375947528   -1.8308813246    2.2629548244
27   

C       -4.4334811719   -0.0575019214    2.2242605066
C       -3.3602632500   -1.0355993572    0.3005023671
C       -3.1888904472    0.2789030144    2.7582881651
C       -2.1101696650   -0.6824115404    0.8274366915
C       -4.5415354679   -0.7020477168    0.9814922049
C       -2.0096338160   -0.0290588451    2.0682189923
C       -0.4957502094    1.2915108038    4.1834984928
C        0.6289611764    1.0926856739    1.6192393434
C       -5.8945311045   -1.1144417613    0.4730791262
C       -6.1818128733   -0.9302841964   -1.0044203437
C        0.0832441278   -1.2438775764    3.1171423671
O       -6.8095676293   -1.3682998670    1.2457741572
S       -0.3880566681    0.4588059154    2.7574746120
H       -5.3327793385    0.1815840650    2.7838615463
H       -3.4017450292   -1.5611555084   -0.6471804787
H       -3.1444450564    0.7919701552    3.7144683047
H       -1.2111264918   -0.9198519666    0.2672269402
H        0.0680066600    2.2052723352    4.3147096786
H       -1.1092227266    0.9229385014    4.9941705839
H        1.2371640864    1.9517844716    1.8697529611
H        0.6764712429    0.6765983892    0.6230352626
H       -5.7837216244   -1.7768032189   -1.5692091069
H       -5.7225345042   -0.0051800933   -1.3630529527
H       -7.2617695238   -0.8716747947   -1.1676419361
H        1.0568286546   -1.2354153777    3.6111535846
H       -0.6591388438   -1.6905810924    3.7812575990
H        0.1503861248   -1.8112203843    2.1881616288
27   

C       -4.2216337613    0.7045647731    1.5244517819
C       -3.6042148101   -1.5195377934    0.8303487125
C       -2.9480645525    0.9003776147    2.0600072111
C       -2.3187746082   -1.3163980108    1.3516329822
C       -4.5683908196   -0.5000482721    0.8896741957
C       -1.9788228072   -0.1072165388    1.9824616710
C       -0.0874267178    1.6927877627    3.2841716310
C        0.8914036487   -0.3520096869    1.6291074205
C       -5.9662549242   -0.6944620598    0.3764169724
C       -6.1806562670   -1.6567428589   -0.7774529522
C       -0.5191331378   -0.9913353413    3.9953079056
O       -6.8858796495    0.0222608530    0.7505046513
S       -0.2989621785    0.1816274968    2.6438647140
H       -4.9553339357    1.5011940493    1.6035439770
H       -3.8325591925   -2.4753712222    0.3723529282
H       -2.7119327478    1.8507656336    2.5296561812
H       -1.5794404264   -2.1065169627    1.2644817529
H        0.7842760165    2.2729508763    3.0129768343
H       -0.8019461252    2.1008972722    3.9858174715
H        1.7821876889    0.2470737256    1.4936874543
H        0.7807020379   -1.2765577059    1.0806680200
H       -6.2185450626   -2.6831241152   -0.4039114431
H       -5.3703618529   -1.5600576982   -1.5050808089
H       -7.1261120231   -1.4279167266   -1.2777512088
H        0.3794978076   -0.9758196624    4.6151666205
H       -1.3812022543   -0.6927025870    4.5947545964
H       -0.6667410556   -1.9938917709    3.5922858876
27   

C       -4.2140608347    0.7387815502    1.5172960879
C       -3.5870721371   -1.4616152696    0.7584611866
C       -2.9455750145    0.9197275115    2.0695278439
C       -2.3065550343   -1.2719376037    1.2969892588
C       -4.5563186571   -0.4484044176    0.8468584952
C       -1.9743560894   -0.0834913389    1.9694257570
C       -0.0977096245    1.6763229338    3.3458966245
C        0.8995083330   -0.3082258086    1.6295157869
C       -5.9440993839   -0.6186593543    0.2998003450
C       -6.2119255793   -1.7638552265   -0.6597871918
C       -0.5264899102   -1.0312604625    3.9615433285
O       -6.8295200005    0.1917224269    0.5426075078
S       -0.3001882034    0.1875941019    2.6524069244
H       -4.9463082002    1.5352134896    1.6107966573
H       -3.7985321939   -2.4035655254    0.2657607430
H       -2.7143239442    1.8563933222    2.5683035658
H       -1.5638268890   -2.0562736472    1.1888408256
H        0.7749066698    2.2672353221    3.1022243124
H       -0.8193829706    2.0588728044    4.0545777148
H        1.7899810200    0.2969770383    1.5221191287
H        0.7951380205   -1.2131632499    1.0481139562
H       -6.2148468558   -2.7127945347   -0.1173962728
H       -5.4496538683   -1.7862965766   -1.4431371273
H       -7.1890922369   -1.6270013243   -1.1321164174
H        0.3675532561   -1.0341097140    4.5881821135
H       -1.3938608313   -0.7556718152    4.5643487073
H       -0.6678251989   -2.0199686283    3.5235899019
27   

C       -4.2221695459    0.7695378281    1.4980511714
C       -3.5737315108   -1.4015995069    0.6760367570
C       -2.9613108906    0.9394712132    2.0708923588
C       -2.3009253327   -1.2223574433    1.2361145299
C       -4.5521734655   -0.3994649591    0.7899398255
C       -1.9833866568   -0.0547701295    1.9505198690
C       -0.1275184272    1.6757985283    3.3911397673
C        0.8948110520   -0.2586019561    1.6326740802
C       -5.9256826855   -0.5466895307    0.2006526628
C       -6.2678760456   -1.8241180250   -0.5443273111
C       -0.5508315829   -1.0488983619    3.9303063954
O       -6.7691634039    0.3332911079    0.3185545987
S       -0.3169500485    0.2052307251    2.6564488141
H       -4.9572179965    1.5618968620    1.6034473650
H       -3.7665863576   -2.3246797089    0.1420827292
H       -2.7403098862    1.8621952582    2.5994059255
H       -1.5511717638   -1.9970265909    1.1084180311
H        0.7448922509    2.2763902277    3.1715004511
H       -0.8576681187    2.0369160998    4.1023410981
H        1.7835420753    0.3530006218    1.5498283347
H        0.8003350637   -1.1483690171    1.0266899067
H       -6.1708773806   -2.6853655283    0.1217809216
H       -5.6071015996   -1.9439008218   -1.4069094279
H       -7.3006188899   -1.7758220912   -0.9018778362
H        0.3377553579   -1.0659444754    4.5644378558
H       -1.4242774651   -0.7920289948    4.5325739511
H       -0.6852845351   -2.0258005032    3.4645545267
27   

C       -4.1911900171    0.7779266910    1.4568358621
C       -3.5194672300   -1.3742824164    0.6032284418
C       -2.9428058829    0.9388791015    2.0588591226
C       -2.2586034028   -1.2034484687    1.1921545566
C       -4.5042528527   -0.3794008216    0.7230724694
C       -1.9596510453   -0.0503932196    1.9379434842
C       -0.1440819154    1.6508983536    3.4619666246
C        0.9249776193   -0.2172726165    1.6606318122
C       -5.8567386907   -0.5116397673    0.0845874935
C       -6.2946459247   -1.8770409638   -0.4136132894
C       -0.5480382211   -1.0931773558    3.9091987930
O       -6.6435661704    0.4262888828    0.0575027813
S       -0.3073288675    0.2023520911    2.6788377959
H       -4.9292671539    1.5680116416    1.5580529741
H       -3.6992368651   -2.2806132513    0.0366168618
H       -2.7342716318    1.8521199122    2.6085324831
H       -1.5026704711   -1.9712597482    1.0596576215
H        0.7256949990    2.2662894226    3.2752873432
H       -0.8893234750    1.9828264331    4.1717390625
H        1.8089175604    0.4048375627    1.6115441716
H        0.8481265477   -1.0873741363    1.0243382622
H       -6.1083761508   -2.6363321499    0.3504460941
H       -5.7537682272   -2.1310371142   -1.3288980771
H       -7.3663271980   -1.8623080964   -0.6326193552
H        0.3301220376   -1.1200932149    4.5573546621
H       -1.4342052199   -0.8646104048    4.5042106656
H       -0.6632926646   -2.0565934089    3.4113570541
27   

C       -4.2158033618    0.7548844867    1.4525686449
C       -3.5019315319   -1.3574016490    0.5359401149
C       -2.9774946540    0.9122972046    2.0764385389
C       -2.2512601346   -1.1902765179    1.1468490070
C       -4.5035223185   -0.3835481669    0.6811245663
C       -1.9789009557   -0.0593427263    1.9358819237
C       -0.2058088058    1.6155305890    3.5379038212
C        0.9115913295   -0.1767295823    1.6893600631
C       -5.8368665386   -0.5055728006    0.0008454661
C       -6.3846560537   -1.8965271660   -0.2626681008
C       -0.5756227647   -1.1467780616    3.8886540094
O       -6.5558024805    0.4714076524   -0.1657904404
S       -0.3391727445    0.1920324953    2.7047548144
H       -4.9654445658    1.5326320199    1.5636686101
H       -3.6689218154   -2.2406505282   -0.0703473264
H       -2.7878360532    1.8104301094    2.6569703802
H       -1.4821854696   -1.9414865286    0.9961028358
H        0.6580549073    2.2480115233    3.3836264322
H       -0.9648449389    1.9140608208    4.2478613415
H        1.7877282091    0.4580175051    1.6730793326
H        0.8544742518   -1.0254090549    1.0227649166
H       -6.1614342741   -2.5567484444    0.5796077676
H       -5.9421069546   -2.3031292084   -1.1755553384
H       -7.4702189254   -1.8478004646   -0.3881413529
H        0.2954519086   -1.1831748183    4.5458451848
H       -1.4716023230   -0.9502014303    4.4803563054
H       -0.6716168009   -2.0945561683    3.3577937121
27   

C       -4.2040444913    0.7715039868    1.4036708202
C       -3.4455602006   -1.3090920752    0.4516645659
C       -2.9792893321    0.9299349335    2.0538989320
C       -2.2080269068   -1.1409135722    1.0882430006
C       -4.4628448900   -0.3540081309    0.6051976206
C       -1.9653751579   -0.0256486513    1.9091493271
C       -0.2484372950    1.6282069617    3.5923705612
C        0.9305660759   -0.0807647322    1.7040710260
C       -5.7763609643   -0.4697080041   -0.1167952431
C       -6.4578904304   -1.8245601312   -0.1369137747
C       -0.5686665816   -1.1500628306    3.8476747271
O       -6.3977304751    0.5277958861   -0.4593359366
S       -0.3422713642    0.2307912326    2.7110300510
H       -4.9653600351    1.5381282305    1.5120725528
H       -3.5972715186   -2.1759741150   -0.1820434468
H       -2.8108320633    1.8176177901    2.6566438852
H       -1.4259582831   -1.8773402913    0.9316321176
H        0.6060132917    2.2807543230    3.4731948718
H       -1.0243071606    1.8896451051    4.2987379503
H        1.7952767350    0.5693770913    1.7234324334
H        0.8984777969   -0.9063030777    1.0073847898
H       -6.3134583333   -2.3313097158    0.8209278517
H       -6.0414514323   -2.4380183963   -0.9396320936
H       -7.5306683099   -1.6975362862   -0.3084505125
H        0.2935769019   -1.1904333394    4.5161936190
H       -1.4767388210   -0.9904393922    4.4319685561
H       -0.6375951009   -2.0819286089    3.2853958686
27   

C       -4.1849184149    0.7088489896    1.3707623861
C       -3.3570585118   -1.3266086806    0.3753639737
C       -2.9762020248    0.8780323396    2.0482840134
C       -2.1359379153   -1.1468191053    1.0395745048
C       -4.3983977144   -0.4013977464    0.5408214817
C       -1.9367082622   -0.0496616957    1.8966708140
C       -0.2924424621    1.5935735117    3.6617053582
C        0.9641303452   -0.0292270546    1.7475398840
C       -5.6904743889   -0.5369377405   -0.2206793346
C       -6.4898002691   -1.8063875157   -0.0059985335
C       -0.5487223400   -1.1971451770    3.8279526430
O       -6.2126252127    0.4327372161   -0.7539259634
S       -0.3355678836    0.2220326253    2.7368243632
H       -4.9672575253    1.4536813061    1.4796673731
H       -3.4805928940   -2.1761708735   -0.2875248709
H       -2.8393324367    1.7528325295    2.6772879934
H       -1.3328808311   -1.8588193850    0.8763674979
H        0.5491946371    2.2682525070    3.5806493641
H       -1.0887313461    1.8160192874    4.3586107046
H        1.8134273836    0.6386982173    1.8053634531
H        0.9647348875   -0.8325830014    1.0246460333
H       -6.4254091622   -2.1164533233    1.0403274166
H       -6.0994471432   -2.6029942490   -0.6439385488
H       -7.5397523183   -1.6317862332   -0.2578237961
H        0.3016488640   -1.2364102151    4.5115756245
H       -1.4712411590   -1.0772012218    4.3989184037
H       -0.5837834079   -2.1132575638    3.2373478734
27   

C       -4.1889378062    0.6730719381    1.3286181351
C       -3.3027936965   -1.3228581968    0.3001728804
C       -2.9933359546    0.8519799885    2.0272103351
C       -2.0950316602   -1.1320470934    0.9850632097
C       -4.3627136529   -0.4216210022    0.4710180611
C       -1.9318098924   -0.0502488750    1.8694919159
C       -0.3537704580    1.5774736605    3.7079823740
C        0.9695466207    0.0524980486    1.7590732681
C       -5.6446736539   -0.5849912032   -0.3096826779
C       -6.5731713647   -1.6943565590    0.1375361557
C       -0.5342690580   -1.2223752466    3.7814005130
O       -6.0404368600    0.2880234016   -1.0693285778
S       -0.3486577755    0.2364216727    2.7384135118
H       -4.9893878422    1.3972472256    1.4424023447
H       -3.4031137077   -2.1596712263   -0.3827574614
H       -2.8833089051    1.7145160442    2.6780667414
H       -1.2748554295   -1.8231241739    0.8171856330
H        0.4711114281    2.2756802446    3.6610592272
H       -1.1648945762    1.7562562056    4.4003091617
H        1.8007654853    0.7390460990    1.8511408854
H        0.9992664282   -0.7246663885    1.0086225858
H       -6.5846944442   -1.7548871581    1.2289963067
H       -6.2338743865   -2.6486468336   -0.2726137814
H       -7.5887395670   -1.4950261394   -0.2162180482
H        0.3085279186   -1.2591421062    4.4744927982
H       -1.4667298768   -1.1471151645    4.3437326673
H       -0.5352453624   -2.1199306407    3.1619725337
27   

C       -4.2082853604    0.6010467136    1.2988819036
C       -3.2460152111   -1.3239299654    0.2012285185
C       -3.0242274534    0.7910893921    2.0146398298
C       -2.0513021845   -1.1209179568    0.9046747718
C       -4.3294766277   -0.4541858033    0.3850354507
C       -1.9309735042   -0.0676064163    1.8299022261
C       -0.4193107902    1.5464611363    3.7343621110
C        0.9679328032    0.1183142122    1.7565825292
C       -5.6149615507   -0.6744051349   -0.3797598735
C       -6.6451603233   -1.5605455924    0.2877461745
C       -0.5229358189   -1.2584730322    3.7212688247
O       -5.7670376389   -0.2657231900   -1.5219225828
S       -0.3656205267    0.2358927418    2.7250677508
H       -5.0360924022    1.2866363227    1.4466056812
H       -3.3206370375   -2.1403004558   -0.5096693393
H       -2.9488696059    1.6269060941    2.7041258569
H       -1.2093479288   -1.7811261790    0.7210923449
H        0.3858069788    2.2687237137    3.7170316143
H       -1.2414443377    1.6810153518    4.4236314665
H        1.7786362815    0.8243741240    1.8788354396
H        1.0279198255   -0.6351578183    0.9840358657
H       -7.1074673769   -1.0256869168    1.1212526104
H       -6.1688190111   -2.4697460638    0.6637446288
H       -7.4199364480   -1.8374339258   -0.4329191188
H        0.3139789815   -1.2948997746    4.4214703486
H       -1.4622940367   -1.2247010526    4.2760497381
H       -0.4948174413   -2.1362471802    3.0746509928
27   

C       -4.2110875576    0.5283437069    1.3014844329
C       -3.1639766785   -1.3300375306    0.1640888181
C       -3.0404331346    0.7458453031    2.0317372329
C       -1.9839239511   -1.0983273891    0.8826966886
C       -4.2782694235   -0.5000400064    0.3514471683
C       -1.9122052382   -0.0636408643    1.8338645017
C       -0.4840411996    1.5541625822    3.7977748623
C        0.9770661732    0.2409635941    1.7940249909
C       -5.5526347132   -0.7931453204   -0.4023735752
C       -6.6777805187   -1.4133370126    0.4002738803
C       -0.4731180282   -1.2516160304    3.7047214525
O       -5.5776656286   -0.8106533000   -1.6251078118
S       -0.3680880428    0.2758978646    2.7527350144
H       -5.0689396172    1.1706972775    1.4694496782
H       -3.2066918414   -2.1357163821   -0.5620541435
H       -3.0041495364    1.5628169735    2.7465149312
H       -1.1170827293   -1.7235769758    0.6927409081
H        0.2906346584    2.3091220848    3.8078765029
H       -1.3158786016    1.6345793783    4.4838247507
H        1.7570959968    0.9756910949    1.9436829030
H        1.0742449028   -0.4873572798    1.0013465798
H       -7.2249058879   -0.6326192260    0.9343162795
H       -6.2734820058   -2.1278838514    1.1221130127
H       -7.3666239810   -1.9375756573   -0.2682052918
H        0.3582031896   -1.2741360010    4.4121349086
H       -1.4180565573   -1.2721688493    4.2505887619
H       -0.4031747579   -2.1087347188    3.0339800427
27   

C       -4.2214548732    0.4386143179    1.3291736336
C       -3.1124549210   -1.3531654813    0.1398591527
C       -3.0550987060    0.6788504183    2.0595355138
C       -1.9386246222   -1.0973499824    0.8599554514
C       -4.2548099593   -0.5660383003    0.3514405747
C       -1.8994450426   -0.0843650279    1.8361022529
C       -0.5179415490    1.5384001858    3.8281540164
C        0.9770096766    0.3175410164    1.7912995555
C       -5.5109527480   -0.9022391278   -0.4071604098
C       -6.7359247782   -1.2563795636    0.4126320418
C       -0.4141408136   -1.2640393856    3.6755606041
O       -5.4753180116   -1.1661990092   -1.6015909290
S       -0.3635206352    0.2863341409    2.7566353807
H       -5.1000810400    1.0452928482    1.5200413738
H       -3.1297103544   -2.1437912685   -0.6040753870
H       -3.0441015643    1.4774755258    2.7955528322
H       -1.0515165548   -1.6874515738    0.6519821860
H        0.2296569651    2.3199727390    3.8490473785
H       -1.3472869989    1.5751397192    4.5209000274
H        1.7313521593    1.0764684634    1.9514154724
H        1.0960502586   -0.3920942455    0.9847537756
H       -7.2494106000   -0.3438508439    0.7251108994
H       -6.4423340045   -1.8273026957    1.2974925525
H       -7.4216096140   -1.8625208239   -0.1862764850
H        0.4212381250   -1.2751317445    4.3784470740
H       -1.3550228707   -1.3270623864    4.2251711128
H       -0.3203673288   -2.1037327822    2.9859104264
27   

C       -4.2961854211    0.3516052119    1.3414197044
C       -3.1272404915   -1.3842180745    0.1243676548
C       -3.1325874699    0.6314712264    2.0621811200
C       -1.9577015768   -1.0869058757    0.8350602855
C       -4.3010067146   -0.6484120983    0.3566431149
C       -1.9499287796   -0.0832555986    1.8212023606
C       -0.6203619620    1.5624664140    3.8290461305
C        0.9055620928    0.4437472644    1.7570601629
C       -5.5420513108   -1.0362612518   -0.3973081660
C       -6.8409699635   -1.1209980262    0.3814338932
C       -0.3964272667   -1.2301034548    3.6259206556
O       -5.4769442124   -1.5054381299   -1.5262965610
S       -0.4223254438    0.3368786958    2.7343155165
H       -5.1934962622    0.9241657913    1.5491534063
H       -3.1166212258   -2.1705047014   -0.6244915531
H       -3.1456419253    1.4230329462    2.8057792701
H       -1.0498417724   -1.6390312866    0.6128599847
H        0.0925733429    2.3755601994    3.8568869727
H       -1.4432167235    1.5503191166    4.5303737731
H        1.6276688213    1.2320933813    1.9234800094
H        1.0472213477   -0.2462095988    0.9371847384
H       -7.2846611573   -0.1265103954    0.4728020052
H       -6.6555431323   -1.5299472171    1.3782106339
H       -7.5443241025   -1.7758169281   -0.1409504173
H        0.4443740751   -1.2163563051    4.3222567449
H       -1.3290283443   -1.3447324310    4.1812956101
H       -0.2710829708   -2.0527575763    2.9209108359
27   

C       -4.2787099394    0.2829968304    1.3649739831
C       -3.0656867710   -1.3854433415    0.0992538722
C       -3.1222108305    0.5729419849    2.0928884022
C       -1.9038174132   -1.0768772767    0.8177262187
C       -4.2621715046   -0.6938405679    0.3547484390
C       -1.9217278654   -0.1029498266    1.8324563861
C       -0.6370782971    1.5197890500    3.8864743873
C        0.9174272770    0.5027844656    1.7836415473
C       -5.4874695608   -1.0830761863   -0.4210336051
C       -6.8421701634   -0.9075195046    0.2405136241
C       -0.3378425084   -1.2600004928    3.6038929071
O       -5.4039916293   -1.6947983828   -1.4787118324
S       -0.4056316540    0.3309764980    2.7581762646
H       -5.1855495574    0.8324778841    1.5917374351
H       -3.0296861267   -2.1498159400   -0.6712358983
H       -3.1552631996    1.3432602982    2.8578799591
H       -0.9816522425   -1.5975109907    0.5790378784
H        0.0515593633    2.3525795077    3.9355353242
H       -1.4572867682    1.4637758029    4.5887942108
H        1.6160621363    1.3075084224    1.9705823559
H        1.0787708525   -0.1611992296    0.9461537447
H       -7.1632249211    0.1339905960    0.1582845380
H       -6.7879511336   -1.1927764726    1.2944865539
H       -7.5804676063   -1.5446947858   -0.2549329427
H        0.5021872760   -1.2441147689    4.3011085081
H       -1.2671312225   -1.4156830918    4.1548437024
H       -0.1906220578   -2.0581881444    2.8753667710
27   

C       -4.2962966343    0.1854995067    1.4149333963
C       -3.0580998122   -1.4288913767    0.1066182327
C       -3.1352459629    0.5018293637    2.1242749021
C       -1.8925465456   -1.0932515309    0.8066048956
C       -4.2734160238   -0.7826666104    0.3939489345
C       -1.9203058393   -0.1332886464    1.8335247874
C       -0.6487518392    1.5038526096    3.8829614461
C        0.8951090300    0.5650860213    1.7364878436
C       -5.4960897906   -1.1869897160   -0.3779003455
C       -6.8562215643   -0.7616630620    0.1442899676
C       -0.2655903943   -1.2622488008    3.5577420751
O       -5.4240101224   -1.9285553130   -1.3501055500
S       -0.4007902129    0.3367468646    2.7356281766
H       -5.2095020401    0.7107382239    1.6702788312
H       -3.0095150043   -2.1816702282   -0.6745110246
H       -3.1768318855    1.2622689178    2.8986914043
H       -0.9596124369   -1.5817846936    0.5431928004
H        0.0112552053    2.3597664289    3.9273513799
H       -1.4508241601    1.4108178225    4.6021221963
H        1.5688627337    1.3919221588    1.9181944037
H        1.0624353912   -0.0842780569    0.8887806676
H       -6.9989641799    0.3098711663   -0.0178041522
H       -6.9398018662   -0.9891059974    1.2102686124
H       -7.6419545532   -1.3049516616   -0.3887358021
H        0.5870543461   -1.2286495543    4.2388157038
H       -1.1784592993   -1.4550394929    4.1242177651
H       -0.1074893541   -2.0456092345    2.8155248799
27   

C       -4.3245497369    0.0955211134    1.5115962665
C       -3.0507774419   -1.4597438246    0.1661995464
C       -3.1613644167    0.4574027346    2.1949863684
C       -1.8842513800   -1.0781736081    0.8406441926
C       -4.2860644653   -0.8679406952    0.4859563786
C       -1.9280762745   -0.1243608293    1.8725834097
C       -0.6794620781    1.5609068707    3.8959891288
C        0.8525856219    0.6891751789    1.7130507662
C       -5.5055591273   -1.3108677551   -0.2699716271
C       -6.8432210348   -0.6783921397    0.0675495393
C       -0.1909590882   -1.1878535132    3.5560884510
O       -5.4431344087   -2.1685683732   -1.1422999121
S       -0.4090799031    0.4057992030    2.7415530801
H       -5.2515262082    0.5799818472    1.7956673543
H       -2.9876163549   -2.2059582693   -0.6201593782
H       -3.2167813755    1.2116488974    2.9745686728
H       -0.9380251361   -1.5258108091    0.5530787862
H       -0.0562838409    2.4446173140    3.9254768512
H       -1.4590185419    1.4330005446    4.6343147601
H        1.4938778765    1.5445320908    1.8795870513
H        1.0288906094    0.0467062906    0.8619317475
H       -6.8021415106    0.4001161746   -0.1061359864
H       -7.0993656955   -0.8766873739    1.1115487144
H       -7.6236357674   -1.1043599377   -0.5697976072
H        0.6746342999   -1.1211125076    4.2181081871
H       -1.0824419429   -1.4184598710    4.1421822288
H       -0.0181998889   -1.9628259195    2.8083422107
