18   
Generated by ForceBalance from scan.xyz: Frame 1 of 7
C        0.7170178590   -0.0059014507    2.6099526434
C        0.1344692892    0.7170608176    3.6215255551
C       -0.0479178928    0.4011948387    1.4028921222
C        0.7657393389   -1.2903493297   -0.4066871139
C       -1.1932857211    0.2518780971   -0.9016869792
C        0.0382822835    1.0589977068   -1.0652635223
C        0.0137399750   -0.0686039615    0.0018013979
N       -1.1283800771    1.0226579686    1.8465193098
O        0.8975298864   -1.6548364882   -1.5618824629
O       -0.6138815951    1.6838594283    3.0083168350
O        1.3014118172   -1.9934164002    0.6260639799
H        1.4672392570   -0.7779241949    2.6728890081
H        0.3547889687    0.8483999825    4.6736291968
H       -2.0410574964    0.6942277085   -0.3926623835
H       -1.4070412827   -0.5025074000   -1.6502096926
H        0.6728431791    0.8681068091   -1.9235808797
H        0.0522094601    2.0636705314   -0.6565872373
H        1.7480809258   -2.7593723470    0.2154601412
18   
Generated by ForceBalance from scan.xyz: Frame 2 of 7
C        0.8090620650    0.1065986902    2.5485771021
C        0.1893004350    0.7261722295    3.5962037477
C       -0.0801974358    0.3602677921    1.4298736721
C        0.7424837295   -1.3133990204   -0.3768159613
C       -1.1545663798    0.2842682010   -0.9204139130
C        0.1042603787    1.0646359290   -1.0303591608
C        0.0125764365   -0.0726895837    0.0142776929
N       -1.2039564536    0.8954245875    1.8798888727
O        0.9220898747   -1.6680026077   -1.5286494593
O       -0.8300479336    1.4808513510    3.1110218991
O        1.1929789942   -2.0487516770    0.6744018911
H        1.7053975778   -0.4933643168    2.5567849285
H        0.4600664573    0.8942432422    4.6309732972
H       -2.0097796167    0.7390826031   -0.4355548676
H       -1.3620033298   -0.4493956349   -1.6910142717
H        0.7600904908    0.8716203433   -1.8722166794
H        0.1280193465    2.0654736279   -0.6123090980
H        1.6257164705   -2.8306284008    0.2795425711
18   
Generated by ForceBalance from scan.xyz: Frame 3 of 7
C        0.8467474103    0.1878299632    2.5154963111
C        0.2203483344    0.7410081406    3.5898621699
C       -0.1146436782    0.3272491265    1.4575926037
C        0.7011797290   -1.3217552279   -0.3577227418
C       -1.1457756438    0.3278619663   -0.9195893652
C        0.1360108982    1.0794321148   -0.9938772328
C       -0.0071286757   -0.0674010152    0.0291723215
N       -1.2472066719    0.8320394754    1.9143470004
O        0.8871209272   -1.6796669494   -1.5074245879
O       -0.9578775543    1.2858552199    3.2107948092
O        1.1261765576   -2.0623976067    0.7004859832
H        1.8152673809   -0.2860850562    2.4747259591
H        0.5150217481    0.9218466491    4.6156043831
H       -1.9996071625    0.7967876881   -0.4457217389
H       -1.3572139552   -0.3862643531   -1.7073210409
H        0.8010039587    0.8833375921   -1.8279569183
H        0.1764939918    2.0747169478   -0.5637246750
H        1.5476536977   -2.8543993492    0.3139971109
18   
Generated by ForceBalance from scan.xyz: Frame 4 of 7
C        0.8463139562    0.2109779962    2.4996702198
C        0.2294139884    0.7661228123    3.5772381287
C       -0.1403761057    0.2954512192    1.4641857363
C        0.6863213808   -1.3278053191   -0.3583145787
C       -1.1434539009    0.3387468779   -0.9277862058
C        0.1451232679    1.0824841854   -0.9809689759
C       -0.0185174802   -0.0720891953    0.0283587806
N       -1.2479241036    0.8619413679    1.9048414045
O        0.8807878268   -1.6827118444   -1.5074179150
O       -1.0187980298    1.1645026093    3.2515455552
O        1.0995107147   -2.0722476862    0.7022063324
H        1.8363851945   -0.2144588643    2.4404629654
H        0.5287433447    0.9392379295    4.6027234794
H       -1.9988500425    0.8093159535   -0.4579841776
H       -1.3525296222   -0.3647345593   -1.7257343473
H        0.8165216879    0.8905355053   -1.8109605098
H        0.1884192071    2.0729130839   -0.5400928420
H        1.5218550595   -2.8651781449    0.3186877411
18   
Generated by ForceBalance from scan.xyz: Frame 5 of 7
C        0.8675622860    0.2072827691    2.4662384892
C        0.2568759463    0.8023369133    3.5292715040
C       -0.1340673581    0.2316919948    1.4330724624
C        0.7332084791   -1.3907929664   -0.3622175501
C       -1.1073468365    0.2501384753   -0.9724049076
C        0.1741487163    1.0075454037   -1.0189038705
C        0.0113935830   -0.1378243931   -0.0003487435
N       -1.2011214301    0.8891620423    1.8437085914
O        0.9534506818   -1.7550662051   -1.5035370155
O       -1.0336749310    1.0612257536    3.2226361553
O        1.1287857918   -2.1215269080    0.7145650654
H        1.8692672055   -0.1906170962    2.4057962150
H        0.5523824910    0.9788123309    4.5552340877
H       -1.9721564231    0.7160068240   -0.5146526260
H       -1.3012359346   -0.4618814974   -1.7666984151
H        0.8560634709    0.8143453470   -1.8400701556
H        0.2027704821    2.0021606109   -0.5865435440
H        1.5652821340   -2.9154386620    0.3493960623
18   
Generated by ForceBalance from scan.xyz: Frame 6 of 7
C        0.8304328199    0.1344031897    2.5111733848
C        0.2573830302    0.8166206970    3.5459538565
C       -0.1480775414    0.2487476077    1.4429219334
C        0.7423742851   -1.3554056039   -0.3639556478
C       -1.1354075953    0.2473148874   -0.9547158540
C        0.1269535682    1.0311649016   -1.0153646025
C        0.0029932368   -0.1168802236    0.0086145041
N       -1.0812570716    1.1121994743    1.8036604073
O        0.9613498921   -1.7081099274   -1.5091573515
O       -1.0286783518    1.1011349018    3.2147214931
O        1.1515120389   -2.0922801578    0.7040609972
H        1.7942183285   -0.3496051984    2.4755162532
H        0.5278573860    0.9651411648    4.5838935573
H       -2.0011421409    0.6956047699   -0.4804132495
H       -1.3244302917   -0.4695540982   -1.7458953242
H        0.8048526419    0.8502889486   -1.8426666895
H        0.1401279429    2.0248118313   -0.5806431834
H        1.5957750749   -2.8769773315    0.3283764005
18   
Generated by ForceBalance from scan.xyz: Frame 7 of 7
C        0.4059069959   -0.1879692426    2.6233407369
C        0.1439273385    0.7814640980    3.5601046210
C       -0.0175518009    0.4408578508    1.3456471196
C        0.9074848753   -1.2317574922   -0.4310263984
C       -1.1833389451    0.1376125635   -0.9095137822
C       -0.0191957793    1.0169703213   -1.1669162597
C        0.0976062478   -0.0387032861   -0.0495879596
N       -0.1664248753    1.7298746440    1.5989870259
O        0.9562906107   -1.6884222305   -1.5597055874
O       -0.6675791750    1.6923842845    2.9414242108
O        1.6139468491   -1.7847072715    0.5901061434
H        0.9145646285   -1.1301102107    2.7505792510
H        0.1968040379    0.8126957700    4.6413281005
H       -2.0309742668    0.5503019046   -0.3730588363
H       -1.3866528813   -0.6694716442   -1.6045594237
H        0.5843127507    0.8125478650   -2.0438598326
H       -0.0557802883    2.0438033429   -0.8235049193
H        2.0962084662   -2.5369843211    0.1948168195
