29   

C        3.0827047875   -2.8217929948    0.6819674585
C        2.4557562080   -1.6309664737    0.3063516272
C        2.8673111240   -3.3459634327    1.9592161363
C        1.6122502390   -0.9683975805    1.2052244333
C        2.0307761200   -2.6773145157    2.8599905619
C       -0.1577504308   -4.4163173993    5.7023378218
C       -0.0377690442   -5.6847779743    5.1287234619
C       -1.3789196882   -3.6781706851    3.7571598770
C        1.3909331718   -1.4815425091    2.4939293585
C       -0.8177639594   -3.3955108013    5.0108891281
C       -0.5735574542   -5.9593839203    3.8638728762
C       -1.2572030962   -4.9434992199    3.1715157439
C        0.5091501165   -0.7873169015    3.4275816395
C        0.3878060838   -0.8933446838    4.8032310948
O       -2.2147194847   -1.0958455645    5.3467295417
O       -0.6358641395   -1.7070611517    7.1429251400
S       -0.9261336337   -1.7117408648    5.7003690675
Cl      -0.3814096936   -7.5553219106    3.1717170021
Cl      -1.9480833937   -5.2292207105    1.5886902867
H        3.7341601466   -3.3369819454   -0.0152467760
H        2.6235532562   -1.2192805720   -0.6826002174
H        3.3485838077   -4.2719949225    2.2528205846
H        1.1352226084   -0.0446600306    0.8965233177
H        1.8738881452   -3.0980594161    3.8465906530
H        0.2668432259   -4.2216925780    6.6844617894
H        0.4794920238   -6.4709240763    5.6661420297
H       -1.9104950399   -2.9003133185    3.2159694345
H       -0.1567047103   -0.0574306781    2.9776283843
H        1.1755588357   -0.5073110226    5.4304820586
29   

C        2.8590983817   -3.1018709139    0.8812184778
C        2.1717234760   -1.9876113860    0.3940687214
C        2.8006742948   -3.4115611966    2.2421161564
C        1.4214296703   -1.1898059837    1.2652018419
C        2.0565907625   -2.6081313608    3.1130886156
C       -0.0688335288   -4.3959114569    5.5513996075
C        0.1165856572   -5.6109790146    4.8865653934
C       -1.2398891739   -3.5466499648    3.6210018961
C        1.3501342919   -1.4909951026    2.6357523453
C       -0.7338050601   -3.3440526794    4.9132747983
C       -0.3570754313   -5.8005198015    3.5818451551
C       -1.0493389055   -4.7559330427    2.9432808348
C        0.5415697750   -0.6668667387    3.5329816962
C        0.3628656861   -0.7591282830    4.8918645275
O       -2.2272565004   -1.1359440898    5.4094054445
O       -0.6265087689   -1.8002078103    7.1584494756
S       -0.9112073709   -1.7173103522    5.7170195953
Cl      -0.0762991105   -7.3270230359    2.7733958955
Cl      -1.6611625679   -4.9340057967    1.3129142500
H        3.4361480583   -3.7235042311    0.2055807475
H        2.2177161067   -1.7422121098   -0.6610795605
H        3.3314615276   -4.2762517222    2.6239570376
H        0.8911623671   -0.3322809573    0.8658595557
H        2.0251436553   -2.8634954914    4.1657673372
H        0.3117829720   -4.2653249923    6.5616809712
H        0.6393441143   -6.4205060982    5.3821258482
H       -1.7747159679   -2.7452622369    3.1191704204
H        0.0258490380    0.1667392417    3.0667158408
H        0.9931375791   -0.1870640535    5.5544750398
29   

C        2.7120369557   -3.3434171246    1.1798222710
C        1.8926841282   -2.3836667076    0.5806495973
C        2.8500866040   -3.3665234739    2.5695520416
C        1.2056228700   -1.4551370274    1.3707183481
C        2.1641525011   -2.4362028912    3.3579076454
C        0.0649269789   -4.3429982862    5.2749106730
C        0.2755333068   -5.4850108100    4.4976933863
C       -1.2184100582   -3.3827366577    3.4726395654
C        1.3233561206   -1.4752888117    2.7703028578
C       -0.6666325252   -3.2694174066    4.7570573127
C       -0.2373875441   -5.5786611635    3.1975217357
C       -1.0001109833   -4.5158431970    2.6811900724
C        0.5569883417   -0.5315974344    3.5915111066
C        0.3097579057   -0.6052979790    4.9287815607
O       -2.2253345301   -1.1870421954    5.5220790928
O       -0.5132979941   -1.9181665384    7.1198084667
S       -0.8679583327   -1.7244330323    5.7045950168
Cl       0.0841595487   -7.0092426790    2.2423528786
Cl      -1.6615969153   -4.5743688568    1.0616130532
H        3.2391347992   -4.0673070922    0.5682713882
H        1.7849135646   -2.3621990974   -0.4980262175
H        3.4864394012   -4.1083936033    3.0382966974
H        0.5664463474   -0.7246772279    0.8872401104
H        2.2814155515   -2.4697254332    4.4351215613
H        0.4803644566   -4.2838978928    6.2779609822
H        0.8518868061   -6.3097753083    4.8994385126
H       -1.8061129231   -2.5654873751    3.0648790080
H        0.1762749370    0.3500390040    3.0856316060
H        0.7147486107    0.1416906126    5.5936153447
29   

C        2.6382976964   -3.4113107901    1.2928479736
C        1.8111256344   -2.4789127064    0.6619349888
C        2.8051749383   -3.3638352640    2.6789181778
C        1.1444742502   -1.5076322887    1.4172736187
C        2.1382978009   -2.3916591472    3.4325708459
C        0.0749520739   -4.3635701296    5.1654911373
C        0.2887090921   -5.4891444981    4.3660418123
C       -1.2221321472   -3.3755179225    3.3883797184
C        1.2882190430   -1.4597054698    2.8135285382
C       -0.6651076779   -3.2838732209    4.6721002251
C       -0.2293161424   -5.5605618726    3.0667625056
C       -1.0002393941   -4.4921717209    2.5742289377
C        0.5491190935   -0.4630326373    3.6015159598
C        0.1777163589   -0.5370859577    4.9009296734
O       -2.2813212028   -1.3052038672    5.5729113735
O       -0.4672506173   -1.9894226529    7.0582305211
S       -0.8888016516   -1.7705383933    5.6650201126
Cl       0.0951322888   -6.9714455573    2.0837274738
Cl      -1.6694931185   -4.5246889789    0.9571855038
H        3.1496814409   -4.1681581459    0.7084649803
H        1.6817948627   -2.5116576110   -0.4140884393
H        3.4490402693   -4.0832004482    3.1718061363
H        0.4998374434   -0.7977229024    0.9109558568
H        2.2776396621   -2.3675929397    4.5076356058
H        0.4922697712   -4.3230197302    6.1686975730
H        0.8704548116   -6.3183967415    4.7503641699
H       -1.8184367708   -2.5551070891    3.0003761230
H        0.3117394042    0.4650391452    3.0911405647
H        0.3755995753    0.3023610839    5.5495402953
29   

C        3.1676503600   -3.5334537488    1.9163760914
C        2.1350902157   -3.0603395627    1.1019681805
C        3.3175823712   -3.0282206976    3.2105559915
C        1.2538088517   -2.0844533420    1.5813077419
C        2.4327149030   -2.0565665200    3.6903990583
C        0.1842793684   -4.2671113954    4.4960701020
C        0.0636927425   -5.2718739257    3.5353302340
C       -1.7897314583   -3.2031948765    3.6097890962
C        1.3863902772   -1.5765131221    2.8832335265
C       -0.7305557861   -3.2087674897    4.5275258400
C       -0.9714701120   -5.2471586092    2.5941901571
C       -1.9149771516   -4.2036336867    2.6368456790
C        0.4412454624   -0.5694488990    3.3935683275
C        0.0186328725   -0.4506164304    4.6670491825
O       -1.7868729831   -1.4782368641    6.3419761324
O        0.5429009728   -2.1440184186    6.6846134822
S       -0.5093428163   -1.8299401467    5.7032337407
Cl      -1.0656066829   -6.5071878732    1.3833767366
Cl      -3.2294625733   -4.1239491099    1.4840916498
H        3.8518758055   -4.2879255225    1.5442632474
H        2.0151305705   -3.4511346532    0.0977225664
H        4.1201634694   -3.3871456687    3.8452455297
H        0.4534489271   -1.7336134333    0.9393466995
H        2.5619392590   -1.6741442494    4.6982770137
H        1.0067674298   -4.2957064694    5.2064036504
H        0.7895016758   -6.0757700327    3.5079987874
H       -2.5197503400   -2.3995057491    3.6348360497
H        0.0786706820    0.1633535339    2.6798957362
H       -0.2214942712    0.5206729526    5.0714269483
29   

C        3.1551111513   -3.5512227066    1.9809377572
C        2.1283836503   -3.0786745769    1.1587360091
C        3.3188946851   -3.0181925553    3.2623703362
C        1.2672020874   -2.0754128027    1.6176110980
C        2.4534507031   -2.0194828003    3.7218488813
C        0.1933372922   -4.2719921041    4.4212690934
C        0.0500451337   -5.2760944004    3.4631345870
C       -1.7967698210   -3.2032001851    3.5785082412
C        1.4135482124   -1.5401628956    2.9068730432
C       -0.7191995822   -3.2124679175    4.4743679539
C       -1.0055440924   -5.2492281213    2.5451860078
C       -1.9451833537   -4.2031827872    2.6081554463
C        0.4914195913   -0.4965766593    3.3940130478
C       -0.0667401049   -0.4280106557    4.6129763685
O       -1.7228746467   -1.5482905722    6.3760125492
O        0.6447359827   -2.1316408041    6.5668180042
S       -0.4748764917   -1.8412608197    5.6546260127
Cl      -1.1298452529   -6.5100439552    1.3378933389
Cl      -3.2846631318   -4.1209490663    1.4847199375
H        3.8242401191   -4.3265588698    1.6246240773
H        1.9974634635   -3.4906908469    0.1643936174
H        4.1170747981   -3.3761516011    3.9031510709
H        0.4713656965   -1.7237248992    0.9704884497
H        2.5930200395   -1.6144662305    4.7195324547
H        1.0308493979   -4.3028728834    5.1137264140
H        0.7734229652   -6.0814989797    3.4203767229
H       -2.5245656990   -2.3982861849    3.6195392707
H        0.2408135358    0.2911581852    2.6908170575
H       -0.4494326094    0.5116177314    4.9809477490
29   

C        3.1275673564   -3.5690494367    2.0181487481
C        2.1014999485   -3.0811455045    1.2040337156
C        3.3176561587   -3.0295680074    3.2934230103
C        1.2678681866   -2.0557766705    1.6647387315
C        2.4790952841   -2.0088253726    3.7547470488
C        0.2037402318   -4.2808511227    4.4061036486
C        0.0622662091   -5.2909150979    3.4539450280
C       -1.7950370921   -3.2273369275    3.5650821948
C        1.4412729649   -1.5138681593    2.9476182170
C       -0.7148998336   -3.2266636983    4.4578233930
C       -0.9970503187   -5.2748666097    2.5400541013
C       -1.9417406834   -4.2332734600    2.6006375298
C        0.5488647022   -0.4412576017    3.4356859218
C       -0.1477296657   -0.4286973687    4.5801756972
O       -1.7123645987   -1.5977899081    6.3909881210
O        0.6770416813   -2.1087467523    6.5122614546
S       -0.4769931785   -1.8506471920    5.6335721607
Cl      -1.1197291109   -6.5434336446    1.3407304705
Cl      -3.2859779101   -4.1643244404    1.4819590816
H        3.7756136656   -4.3613961641    1.6603250190
H        1.9496941690   -3.4980792496    0.2147218642
H        4.1151998962   -3.3996896193    3.9280339202
H        0.4722658183   -1.6908691252    1.0246610252
H        2.6372807830   -1.5985768949    4.7475098082
H        1.0439453849   -4.3033704463    5.0955758221
H        0.7897578063   -6.0926676564    3.4129405873
H       -2.5268721808   -2.4260698716    3.6041267566
H        0.4154738431    0.4061266244    2.7708713188
H       -0.6436101489    0.4749446880    4.9001225197
29   

C        1.9929396957   -3.0252086809    0.8731619670
C        1.0931687101   -1.9557931052    0.8726267564
C        2.7098430078   -3.3288705891    2.0337965270
C        0.9061172733   -1.1967285140    2.0332126598
C        2.5257782819   -2.5648586513    3.1917702924
C       -0.2612070328   -3.9911420234    5.4253911758
C        0.1592658367   -5.2871450512    5.1152553518
C       -0.9294512135   -3.6838686808    3.1295023500
C        1.6157291648   -1.4970033359    3.2072990660
C       -0.7924954273   -3.1691183478    4.4270551728
C        0.0484606581   -5.7902065671    3.8127733927
C       -0.5110263171   -4.9802571154    2.8086109112
C        1.4060280251   -0.7056417971    4.4417799888
C        0.2770703249   -0.6177839738    5.1553639018
O       -1.9174099805   -0.8275121479    3.6143755631
O       -2.1290497960   -1.3929740839    5.9856414810
S       -1.2765517802   -1.4461422823    4.7877277856
Cl       0.6084433486   -7.4105954372    3.4612355068
Cl      -0.6806216556   -5.5581326662    1.1647234311
H        2.1322242906   -3.6191945378   -0.0233500658
H        0.5354281069   -1.7154434064   -0.0256724958
H        3.4056875503   -4.1602444997    2.0375337457
H        0.2002040118   -0.3718117178    2.0221987959
H        3.0829057612   -2.8147288236    4.0876326322
H       -0.1654257655   -3.6185592327    6.4415581128
H        0.5815277456   -5.9155770806    5.8902912861
H       -1.3527484338   -3.0623347241    2.3453989870
H        2.2841047010   -0.2117572386    4.8452806461
H        0.2489706006   -0.0137579598    6.0492651797
29   

C        2.0058518913   -3.0173958732    0.8419770615
C        1.0975704233   -1.9561888680    0.8807400091
C        2.7353354699   -3.3489074922    1.9869525576
C        0.9136792116   -1.2340445045    2.0649609911
C        2.5541045871   -2.6221489229    3.1691903902
C       -0.2804081486   -3.9695905428    5.4410520462
C        0.1474660738   -5.2671019794    5.1477120613
C       -0.9390043960   -3.6917357775    3.1385333280
C        1.6336162947   -1.5642902764    3.2254498053
C       -0.8098087580   -3.1612038003    4.4306025393
C        0.0462028176   -5.7851252935    3.8502936043
C       -0.5121376222   -4.9893007642    2.8342767559
C        1.4256990953   -0.8172853644    4.4828525855
C        0.2570139186   -0.5880982184    5.0975551352
O       -1.9577017396   -0.8389841845    3.5931096135
O       -2.1332728959   -1.3617554828    5.9757334559
S       -1.2969987932   -1.4340557103    4.7674585603
Cl       0.6168178782   -7.4061870015    3.5195877071
Cl      -0.6688677932   -5.5855918633    1.1957428857
H        2.1428464662   -3.5826620521   -0.0732583172
H        0.5311494767   -1.6929022292   -0.0056453728
H        3.4389501175   -4.1732765282    1.9595490295
H        0.2029450793   -0.4134292147    2.0812422576
H        3.1214893077   -2.8950427573    4.0517762597
H       -0.1911233240   -3.5848125322    6.4532956239
H        0.5687158287   -5.8848278006    5.9318558659
H       -1.3611357277   -3.0812186296    2.3451684881
H        2.3212931285   -0.4531091423    4.9758255933
H        0.2095813415    0.1021673092    5.9258210841
29   

C        2.0453973585   -3.0038594224    0.8246824471
C        1.1179737282   -1.9605396184    0.8843784643
C        2.7788727488   -3.3465817802    1.9637296643
C        0.9187334454   -1.2677947992    2.0834387005
C        2.5820410787   -2.6496121604    3.1613728115
C       -0.2970770486   -3.9445825674    5.4543920495
C        0.1416946707   -5.2391035466    5.1638056961
C       -0.9605051863   -3.6784151868    3.1517531925
C        1.6419007246   -1.6102842881    3.2391436890
C       -0.8334317466   -3.1430294593    4.4421076215
C        0.0447851089   -5.7607877370    3.8674730748
C       -0.5215990420   -4.9724745263    2.8500655945
C        1.4140846867   -0.9000541771    4.5103590949
C        0.2256777130   -0.5425296280    5.0241797964
O       -2.0413527157   -0.8477006785    3.6165116522
O       -2.1177154574   -1.3336681923    6.0120096958
S       -1.3288064744   -1.4169174453    4.7729807657
Cl       0.6309716330   -7.3768843095    3.5397490908
Cl      -0.6724870037   -5.5730979663    1.2126002329
H        2.1944924562   -3.5462210534   -0.1024401252
H        0.5487830790   -1.6882470719    0.0024877336
H        3.4978407258   -4.1568616347    1.9196277484
H        0.1931967234   -0.4606587594    2.1142789928
H        3.1528824035   -2.9325934910    4.0385125810
H       -0.2103660799   -3.5563431367    6.4656014512
H        0.5687483849   -5.8513999041    5.9490673013
H       -1.3888117711   -3.0737747035    2.3571672081
H        2.2985556521   -0.6430690428    5.0842611987
H        0.1707582125    0.2409154254    5.7643709326
29   

C        2.1004358540   -3.0168036886    0.8191611862
C        1.1512414022   -1.9935297076    0.8806534398
C        2.8270394344   -3.3591829348    1.9626536018
C        0.9236073068   -1.3204005780    2.0857202959
C        2.6014544854   -2.6823403546    3.1668028051
C       -0.3174144588   -3.9387946056    5.4486711304
C        0.1291604558   -5.2253775850    5.1359114357
C       -1.0182485025   -3.6512841596    3.1595361248
C        1.6397857365   -1.6628277964    3.2464335943
C       -0.8752044147   -3.1298633562    4.4538649761
C        0.0191239869   -5.7316812715    3.8345416027
C       -0.5704112719   -4.9368655961    2.8354224023
C        1.3773105948   -0.9788394459    4.5233383938
C        0.1853130969   -0.5072739618    4.9364785143
O       -2.1748766333   -0.8581503554    3.7068426851
O       -2.0681455718   -1.3279647536    6.1051964769
S       -1.3724491886   -1.4097516955    4.8113919302
Cl       0.6184246152   -7.3367721701    3.4778442798
Cl      -0.7375554032   -5.5181156690    1.1926098797
H        2.2717491659   -3.5438058412   -0.1129623942
H        0.5872902587   -1.7219447785   -0.0048027559
H        3.5630737646   -4.1538919565    1.9168218737
H        0.1805351914   -0.5294588690    2.1171997259
H        3.1673000977   -2.9663185681    4.0468218455
H       -0.2193222321   -3.5616156332    6.4631294858
H        0.5735129451   -5.8429987230    5.9072899769
H       -1.4642633769   -3.0412365564    2.3789408790
H        2.2311490240   -0.8112292051    5.1718000353
H        0.1349886400    0.3731280708    5.5584845179
29   

C        2.2159669492   -3.0960875936    0.8618800726
C        1.2202171923   -2.1165185096    0.8824200963
C        2.9348466791   -3.3794208228    2.0261432009
C        0.9389313159   -1.4280855272    2.0673325002
C        2.6542922513   -2.6882907398    3.2105089968
C       -0.2940706855   -3.9445855352    5.4073649654
C        0.1525024737   -5.2094978089    5.0173869121
C       -1.1472387830   -3.5834423561    3.1809907072
C        1.6462131362   -1.7119363057    3.2490636939
C       -0.9270357395   -3.1086843153    4.4819777447
C       -0.0313471522   -5.6672528465    3.7066015522
C       -0.6983814404   -4.8468971588    2.7790577355
C        1.3243839411   -1.0170007913    4.5043598840
C        0.1282838398   -0.4729685229    4.8271813230
O       -2.3860035037   -0.8648529622    3.9773483944
O       -1.8971299388   -1.3594732852    6.3247368013
S       -1.4112127850   -1.4088173065    4.9367836589
Cl       0.5745772614   -7.2440652701    3.2493069361
Cl      -0.9582133320   -5.3678801681    1.1282285176
H        2.4295849658   -3.6344782605   -0.0548645811
H        0.6621548341   -1.8914279941   -0.0195924782
H        3.7079522256   -4.1393511227    2.0116748081
H        0.1607854025   -0.6714844572    2.0670409686
H        3.2154571663   -2.9271714929    4.1067521035
H       -0.1358266178   -3.6033236994    6.4270961248
H        0.6562557494   -5.8467709982    5.7343654318
H       -1.6530421642   -2.9523784738    2.4555970085
H        2.1359994031   -0.8842013297    5.2123631102
H        0.0776046759    0.5152608949    5.2574229191
29   

C        2.6769433211   -3.3423052131    1.2095419017
C        1.4367308433   -2.7072192250    1.1136245505
C        3.4648060802   -3.1557630780    2.3481579824
C        0.9840633815   -1.8921054392    2.1566240493
C        3.0073038732   -2.3450395555    3.3934673885
C       -0.1473084966   -3.9494792123    4.9855012418
C        0.1562917785   -5.1446126985    4.3320013108
C       -1.7287666911   -3.4166883452    3.2438609629
C        1.7560300269   -1.7111318615    3.3170730880
C       -1.0746626265   -3.0604156056    4.4313700350
C       -0.4659044403   -5.4830251729    3.1249565634
C       -1.4286194061   -4.6132407047    2.5794390761
C        1.2673555624   -0.8976570741    4.4350585254
C        0.0007845896   -0.4420834512    4.6481393599
O       -2.6472966068   -0.8558689268    4.7481417014
O       -1.3129629982   -1.5648128425    6.6815693830
S       -1.3825302856   -1.4441575034    5.2166551981
Cl      -0.0303087593   -6.9743720673    2.3195855980
Cl      -2.2404814886   -4.9904477456    1.0757809986
H        3.0269844740   -3.9755272435    0.4017950384
H        0.8224024407   -2.8474603862    0.2312211377
H        4.4306604953   -3.6427566033    2.4224350162
H        0.0210023724   -1.4033879570    2.0621575549
H        3.6297772949   -2.2186132262    4.2722628920
H        0.3543405444   -3.6998351088    5.9168059908
H        0.8921589379   -5.8169409190    4.7567540027
H       -2.4689713581   -2.7469950675    2.8145436420
H        2.0120019132   -0.5756847735    5.1560195346
H       -0.2002313357    0.6177583741    4.6287299609
29   

C        3.0106097942   -3.2112029107    1.1642687819
C        1.6684285615   -2.8281281005    1.1084066555
C        3.7865681072   -2.8578731378    2.2710482757
C        1.1046981729   -2.0933528413    2.1570348146
C        3.2185879761   -2.1300541767    3.3230285523
C       -0.2837912169   -3.9985077786    4.9701362908
C       -0.1003232774   -5.2144145678    4.3105049123
C       -1.9591194537   -3.3868320728    3.3459311771
C        1.8688635228   -1.7415967136    3.2828036226
C       -1.2007494311   -3.0626484987    4.4792518520
C       -0.8324436806   -5.5261969757    3.1592912927
C       -1.7799072329   -4.6043587587    2.6756107322
C        1.2769913305   -1.0028857039    4.3975854594
C       -0.0020855130   -0.5246148487    4.5430945662
O       -2.6424676447   -0.7913251633    4.9279895275
O       -1.1428573265   -1.5483862825    6.7284071254
S       -1.3654795570   -1.4326158144    5.2783610517
Cl      -0.5520596167   -7.0505771153    2.3465868140
Cl      -2.7258141779   -4.9465760916    1.2435772651
H        3.4485161845   -3.7786974350    0.3505346650
H        1.0618547258   -3.0998945475    0.2516979701
H        4.8300759701   -3.1491104061    2.3150480197
H        0.0634007977   -1.8006204867    2.0918677105
H        3.8368553754   -1.8688794321    4.1747709349
H        0.2999713212   -3.7726737476    5.8589017809
H        0.6248565359   -5.9257143897    4.6879875307
H       -2.6910834929   -2.6788615401    2.9663924687
H        1.9466423270   -0.7687282803    5.2190521104
H       -0.2404981508    0.4817844554    4.2367049446
29   

C        3.4365512981   -2.9928029091    1.0959574297
C        2.0396926471   -2.9562254489    1.1021840781
C        4.1498864509   -2.4219000098    2.1531863793
C        1.3587960357   -2.3450406469    2.1609335175
C        3.4670188687   -1.8189445993    3.2157002210
C       -0.4924810564   -4.1049143662    4.9853543767
C       -0.4781548120   -5.3502595555    4.3554556856
C       -2.1911800030   -3.3611444246    3.4422019644
C        2.0632571542   -1.7704198418    3.2319095748
C       -1.3390645192   -3.0920188290    4.5221510428
C       -1.3103861789   -5.6133130579    3.2612329550
C       -2.1822011428   -4.6078729764    2.8024006105
C        1.3546585436   -1.1353721192    4.3402092845
C        0.0527815110   -0.6746322947    4.4313703258
O       -2.5565954422   -0.7083163759    5.0328843352
O       -0.9771557196   -1.5576860793    6.7277621460
S       -1.3104751745   -1.4436780373    5.2988724073
Cl      -1.2485741784   -7.1827884362    2.4891548254
Cl      -3.2480390697   -4.8858750496    1.4423075548
H        3.9649988112   -3.4610315824    0.2728643841
H        1.4818948113   -3.4004511176    0.2853400736
H        5.2339469708   -2.4438882344    2.1491065436
H        0.2751149497   -2.3244225855    2.1487962475
H        4.0373207442   -1.3779435286    4.0258916194
H        0.1622238326   -3.9208022543    5.8336373230
H        0.1884795648   -6.1256857628    4.7145708562
H       -2.8694435538   -2.5905766953    3.0851055376
H        1.9435444894   -0.9850811399    5.2396506482
H       -0.2252047185    0.2108627847    3.8819878872
