29   

C        3.1035496182   -1.2030968108    1.7475705293
C        1.4094147780   -1.5964350086    0.0801015090
C        2.2017495839   -0.4164516244    2.4735290594
C        0.5139556249   -0.8075613280    0.8124692554
C        8.6198840668   -4.8922389354    2.0928950630
C        2.7327594007   -1.8046142647    0.5267251272
C        0.9008302723   -0.2086873755    2.0125510279
C        8.7125052902   -5.4066849268    0.8272827370
C        6.8303896311   -4.2771201577    0.5701289169
C        3.7024165726   -2.6399621917   -0.2168134320
C        9.8548956363   -6.2649955572    0.3804649036
C        3.4692370824   -3.0192585591   -1.6609711313
N        7.6922858919   -5.0439770705   -0.0420335924
N        4.7790739996   -3.0445959837    0.4268925066
N        5.7313943966   -3.8343922676   -0.1530664006
S        7.1883010324   -3.9127458571    2.2551140139
Cl      -0.2216716962    0.7730892978    2.9210336307
H        4.1037423767   -1.3357288103    2.1474644506
H        1.0390836311   -2.0530870450   -0.8288112054
H        2.5138339822    0.0377402694    3.4067077424
H       -0.4973284492   -0.6604204496    0.4515264215
H        9.3380629603   -5.0648478427    2.8840646218
H        9.5787545766   -7.3193242657    0.4681282202
H       10.0983067910   -6.0473150508   -0.6632948058
H       10.7387798827   -6.0742353985    0.9956410668
H        4.3787746267   -2.8489492372   -2.2441601537
H        3.2051096890   -4.0786448908   -1.7262216439
H        2.6817318389   -2.4232521360   -2.1245647920
H        5.6920577239   -4.1722171263   -1.1092326818
29   

C        3.1284952971   -1.0459908113    1.6552812826
C        1.3576948831   -1.7893382793    0.1977001611
C        2.2096948509   -0.2686607642    2.3701237507
C        0.4443886523   -1.0091658377    0.9171866688
C        8.6461434583   -4.8701759378    2.0732964207
C        2.7207557983   -1.8210723467    0.5526514399
C        0.8607749678   -0.2415797997    2.0077701133
C        8.7254227352   -5.3854146206    0.8070950432
C        6.8343406262   -4.2658314717    0.5729298638
C        3.7068963046   -2.6279424336   -0.1996191748
C        9.8255472586   -6.3019166722    0.3697769244
C        3.5191343883   -2.9059614776   -1.6734895488
N        7.6836979011   -5.0424227566   -0.0444752937
N        4.7652385215   -3.0595378317    0.4544343233
N        5.7283849869   -3.8245726333   -0.1403568326
S        7.2192571457   -3.8859438273    2.2483839186
Cl      -0.2829195936    0.7289190053    2.9018175813
H        4.1689881248   -1.0428040805    1.9642212933
H        0.9865827821   -2.3816115941   -0.6304214879
H        2.5450593462    0.3198827648    3.2160760568
H       -0.6012698521   -0.9991377114    0.6324380626
H        9.3650658263   -5.0540008737    2.8612490557
H        9.4317645739   -7.0530527099   -0.3207899195
H       10.6042052731   -5.7262861309   -0.1379246130
H       10.2625225128   -6.8121713257    1.2328088558
H        4.4213519979   -2.6238163420   -2.2239331793
H        3.3314136952   -3.9722442512   -1.8286436810
H        2.6870042907   -2.3325158692   -2.0883671659
H        5.6896753768   -4.1501164624   -1.1008375756
29   

C        3.1969415057   -0.8544876347    1.5023057106
C        1.4085634050   -1.9078026304    0.2737013068
C        2.2619442976   -0.0623801891    2.1791448781
C        0.4780709058   -1.1125782663    0.9535870027
C        8.6263779398   -4.9676044240    2.1600454365
C        2.7840038695   -1.7956411955    0.5432406672
C        0.8951408880   -0.1837830120    1.9117103639
C        8.7551850974   -5.4146507683    0.8722082604
C        6.8742082465   -4.2809564459    0.6247768198
C        3.7850856355   -2.6001014474   -0.1946948177
C        9.8717923325   -6.3085229040    0.4298144645
C        3.6586278056   -2.7858355416   -1.6899542826
N        7.7472787506   -5.0249592226    0.0003080755
N        4.8125532881   -3.0628678545    0.4843066691
N        5.7976029132   -3.8011889049   -0.1082158758
S        7.1934740432   -3.9914680101    2.3316712553
Cl      -0.2689341910    0.8059963470    2.7569651727
H        4.2528817866   -0.7408459105    1.7260618804
H        1.0531642516   -2.6220440958   -0.4605405072
H        2.5975482675    0.6541068697    2.9197456967
H       -0.5796211322   -1.2140600181    0.7401719146
H        9.3139456800   -5.1946071630    2.9645420018
H        9.5074707334   -7.0156895909   -0.3207507468
H       10.6731282343   -5.7073176283   -0.0081797997
H       10.2693356807   -6.8709368311    1.2793864173
H        4.5605441669   -2.4194141053   -2.1888039004
H        3.5319354145   -3.8467943345   -1.9234598107
H        2.8023959306   -2.2312944715   -2.0830980363
H        5.7993760761   -4.0747831342   -1.0855455252
29   

C        3.1945945422   -0.6967485437    1.3754722603
C        1.4329126645   -2.0557550349    0.4444359291
C        2.2396047812    0.0834500046    2.0382816422
C        0.4813808253   -1.2722717033    1.1087106472
C        8.5813598726   -5.0958104519    2.1797709247
C        2.8039912446   -1.7845038453    0.5790956423
C        0.8752821330   -0.1970377867    1.9117703135
C        8.7416847102   -5.4695570191    0.8722838619
C        6.8764285340   -4.3069166537    0.6404694198
C        3.8199422704   -2.5680245209   -0.1687465865
C        9.8625634801   -6.3475459719    0.4093533277
C        3.7329049996   -2.6503882328   -1.6765113982
N        7.7607974081   -5.0214158966   -0.0023472883
N        4.8242599949   -3.0710539972    0.5137600096
N        5.8233433750   -3.7781306552   -0.0929888363
S        7.1515360124   -4.1184205432    2.3689903102
Cl      -0.3142923751    0.7790097008    2.7372474149
H        4.2489014214   -0.4633639896    1.4831116145
H        1.1035270652   -2.8821180022   -0.1757180113
H        2.5566065237    0.9150258484    2.6567182168
H       -0.5737903771   -1.4956813647    1.0026744787
H        9.2449516522   -5.3748077857    2.9880322020
H        9.5132325051   -7.0064292558   -0.3906543776
H       10.6809082144   -5.7302098804    0.0290710752
H       10.2314068708   -6.9621964291    1.2353617221
H        4.6316507996   -2.2186357296   -2.1263260542
H        3.6472347155   -3.6951205985   -1.9884662809
H        2.8617783249   -2.0995779898   -2.0424483004
H        5.8517728499   -3.9945700316   -1.0841395553
29   

C        3.1355292131   -0.5266297060    1.1914526255
C        1.5006926744   -2.2121214021    0.6401338003
C        2.1465813951    0.2145307800    1.8494775259
C        0.5143790040   -1.4674440423    1.2982753986
C        8.5144719231   -5.2264846098    2.1985011603
C        2.8251535144   -1.7529678542    0.5870476221
C        0.8277566350   -0.2483095166    1.9086410593
C        8.7153221664   -5.5268612978    0.8777827118
C        6.8720250201   -4.3287048688    0.6509310894
C        3.8697234008   -2.5044761948   -0.1649324797
C        9.8415944910   -6.3914792892    0.4029085990
C        3.8223741245   -2.5064553167   -1.6770567680
N        7.7699302063   -5.0167460149   -0.0019838602
N        4.8397710034   -3.0598839093    0.5245014068
N        5.8509119557   -3.7456613510   -0.0866297785
S        7.0897481963   -4.2432477210    2.3956713326
Cl      -0.4051083614    0.6799277603    2.7256948809
H        4.1536095280   -0.1536812594    1.1532427738
H        1.2374732567   -3.1528869829    0.1692078007
H        2.4005140626    1.1576414477    2.3190941272
H       -0.5048811485   -1.8336411584    1.3374402827
H        9.1469339175   -5.5596446024    3.0111891552
H        9.5122516787   -6.9996744075   -0.4443230098
H       10.6789105811   -5.7641276642    0.0855207547
H       10.1757676310   -7.0564136671    1.2043601169
H        4.7269278122   -2.0414680512   -2.0794912859
H        3.7562116482   -3.5334256746   -2.0472583253
H        2.9519591270   -1.9466715007   -2.0314577972
H        5.9129311966   -3.9042657146   -1.0871414816
29   

C        3.0034815596   -0.3343971224    0.9185717896
C        1.6776434981   -2.3478872930    0.8599659258
C        1.9672035007    0.3257848142    1.5901136179
C        0.6432040492   -1.6842943997    1.5306908662
C        8.3997040775   -5.3778388987    2.2277006413
C        2.8677903795   -1.6776422547    0.5427311068
C        0.7772687601   -0.3415980669    1.8997441470
C        8.6546353982   -5.6114152137    0.9028100621
C        6.8638807237   -4.3391445905    0.6589576294
C        3.9649478917   -2.3725855586   -0.1962605202
C        9.7746813442   -6.4862646348    0.4318836472
C        3.9609854567   -2.3338121619   -1.7087062093
N        7.7697854361   -5.0209072221    0.0104658280
N        4.8802293754   -2.9973672664    0.5077720113
N        5.8994712420   -3.6813398015   -0.0919069056
S        6.9988383944   -4.3587805679    2.4139651210
Cl      -0.5155166588    0.4851457284    2.7330306666
H        3.9211998595    0.1968050176    0.6904356444
H        1.5592608700   -3.3903306583    0.5848868212
H        2.0834616366    1.3643944197    1.8769272645
H       -0.2725331631   -2.2120301464    1.7703055769
H        8.9814631702   -5.7765501593    3.0487043526
H        9.4621389603   -7.0462326888   -0.4540741039
H       10.6404611640   -5.8698519929    0.1752413389
H       10.0593059837   -7.1957000090    1.2140771155
H        4.8804552411   -1.8662669641   -2.0723712918
H        3.8967087297   -3.3497337682   -2.1086505241
H        3.1047889958   -1.7573818042   -2.0711125744
H        6.0066636861   -3.7859535886   -1.0956940088
29   

C        2.9266190872   -0.2049464314    0.7402586567
C        1.8909950918   -2.3438277442    1.1472027203
C        1.9100397589    0.4232366873    1.4702030802
C        0.8763310818   -1.7123771044    1.8763419664
C        8.1357924077   -5.7396625983    2.1602235669
C        2.9194927134   -1.5953817800    0.5557691179
C        0.8740206740   -0.3234364383    2.0410735874
C        8.5361213811   -5.7608981776    0.8509772270
C        6.7643783864   -4.4605404727    0.6168288739
C        4.0163370746   -2.2703719942   -0.1956486169
C        9.7646994571   -6.4807196790    0.3884202179
C        4.0553815740   -2.1532705588   -1.7033692952
N        7.7525271253   -5.0228036277   -0.0261091902
N        4.8574880879   -3.0114438520    0.4886444846
N        5.8799930304   -3.6835304506   -0.1186294425
S        6.6995906806   -4.7715851818    2.3483303667
Cl      -0.3926319045    0.4625892179    2.9504326975
H        3.7280400633    0.3903205295    0.3166395033
H        1.8874256374   -3.4235913454    1.0421006331
H        1.9234335225    1.4988108464    1.6022907300
H        0.0855978962   -2.3023772084    2.3247973074
H        8.6442725780   -6.2462626396    2.9703312642
H        9.4923533851   -7.4716643739    0.0152572120
H       10.2450893604   -5.9175319045   -0.4166896581
H       10.4749169082   -6.5910689585    1.2127735506
H        5.0062443337   -1.7152070841   -2.0196963243
H        3.9516202971   -3.1429241221   -2.1574650870
H        3.2387091029   -1.5167949263   -2.0562252426
H        6.0855854475   -3.6390391228   -1.1114851392
29   

C        2.7504928152   -0.1970145339    0.5370552073
C        2.0605880498   -2.3657427630    1.3334604343
C        1.7154603848    0.3975745619    1.2692199350
C        1.0273914517   -1.7671709191    2.0640890033
C        8.0294177726   -5.8618755756    2.1408781536
C        2.9241458514   -1.5903818988    0.5431104580
C        0.8423734846   -0.3813950918    2.0353458055
C        8.4921611035   -5.8096175581    0.8532292784
C        6.7413117427   -4.4825956046    0.6121115843
C        4.0504625404   -2.2175130858   -0.1945211894
C        9.7373507426   -6.5115608717    0.4079543849
C        4.1629668036   -2.0243869921   -1.6904131478
N        7.7559420096   -5.0145880108   -0.0150530324
N        4.8520449830   -3.0109686376    0.4805361814
N        5.8975420265   -3.6560393177   -0.1169206653
S        6.5912230848   -4.8944652401    2.3170985869
Cl      -0.4465356453    0.3635134648    2.9480397516
H        3.4246877879    0.4294677222   -0.0364593356
H        2.2005822205   -3.4407351672    1.3818258619
H        1.5879879342    1.4736482875    1.2513671764
H        0.3659617775   -2.3800313816    2.6652379501
H        8.4956353950   -6.4193849781    2.9429413185
H        9.4776654909   -7.4774989396   -0.0335508245
H       10.2579008835   -5.9073054753   -0.3404225981
H       10.4075192423   -6.6741854980    1.2568140344
H        5.1228791235   -1.5612509195   -1.9357817262
H        4.0954098380   -2.9911114798   -2.1977307925
H        3.3568077548   -1.3817264295   -2.0555696123
H        6.1519598458   -3.5526093015   -1.0939542322
29   

C        2.5840723532   -0.2594293576    0.3842318107
C        2.1942498908   -2.3597313872    1.5005134766
C        1.5297585234    0.3148052477    1.1051696276
C        1.1414819911   -1.7811012032    2.2188654824
C        7.9538329125   -5.9770898947    2.1176683647
C        2.9221799324   -1.6121161030    0.5576784838
C        0.7968769444   -0.4404400973    2.0254389278
C        8.4671561096   -5.8575288098    0.8538744430
C        6.7251293602   -4.5188492874    0.6135182519
C        4.0617295866   -2.2114743719   -0.1742817620
C        9.7297868890   -6.5361744629    0.4217693206
C        4.2462227872   -1.9359550012   -1.6495133009
N        7.7647203350   -5.0175395114    0.0000835544
N        4.8396490178   -3.0420090112    0.4859487740
N        5.9089006222   -3.6549796486   -0.1034430369
S        6.5082049123   -5.0195716686    2.2872888289
Cl      -0.5161039257    0.2800032675    2.9233396333
H        3.1445137844    0.3589135690   -0.3079307018
H        2.4517175913   -3.3991664765    1.6772563558
H        1.2776673957    1.3584379189    0.9574980400
H        0.5887556794   -2.3745351135    2.9377629706
H        8.3888049507   -6.5763448447    2.9070898034
H        9.4887398267   -7.4764257817   -0.0814542438
H       10.2796081443   -5.8931227310   -0.2713022670
H       10.3653644266   -6.7455106833    1.2868408917
H        5.1986207383   -1.4247407811   -1.8162804185
H        4.2476850871   -2.8769917731   -2.2072071996
H        3.4359114569   -1.3115840805   -2.0353786330
H        6.2025050919   -3.4980538688   -1.0621879691
29   

C        2.4325338196   -0.3423954475    0.2529355462
C        2.3247534541   -2.3078148036    1.6403807447
C        1.3612660844    0.2120853012    0.9646395583
C        1.2547421672   -1.7488609475    2.3483140936
C        7.8819721876   -6.0805058658    2.0832400401
C        2.9281775610   -1.6189496408    0.5693049311
C        0.7609136384   -0.4855611400    2.0156776842
C        8.4417415194   -5.9029673567    0.8462452626
C        6.7106570614   -4.5503664967    0.6049343076
C        4.0705077969   -2.2061535077   -0.1653726598
C        9.7187135535   -6.5641384313    0.4294664041
C        4.3228451297   -1.8549009390   -1.6136882773
N        7.7720191985   -5.0219752840    0.0076275914
N        4.8306767865   -3.0666700643    0.4792765048
N        5.9209426063   -3.6523181466   -0.0995934371
S        6.4317765114   -5.1284193093    2.2443242834
Cl      -0.5735344657    0.2112772528    2.9004748171
H        2.8795330812    0.2475918021   -0.5384156507
H        2.6875408933   -3.2895867839    1.9277533093
H        0.9919537046    1.1976761479    0.7062199749
H        0.8037991276   -2.2985203320    3.1662590816
H        8.2869604155   -6.7175376164    2.8589214504
H        9.4953479812   -7.4805773903   -0.1234040926
H       10.2931208249   -5.8919872842   -0.2143013804
H       10.3229920504   -6.8130519707    1.3064014667
H        5.2465465280   -1.2754573744   -1.6990489449
H        4.4248778490   -2.7685357523   -2.2065125468
H        3.4979608301   -1.2784904436   -2.0387321647
H        6.2502137096   -3.4487554808   -1.0377511031
29   

C        2.5516747244   -0.0660144021    0.8413084550
C        2.1134865682   -2.3680644466    1.3863087490
C        1.7248646918    0.3339871942    1.8990294591
C        1.2891276770   -1.9622127376    2.4415007159
C        5.7510056531   -7.3190760687   -1.1786920649
C        2.7611230709   -1.4265233467    0.5566655755
C        1.0851118796   -0.6076959279    2.7070400718
C        6.4006113758   -6.7057492023   -2.2164534662
C        5.2573731998   -4.9610218573   -1.4862475631
C        3.6282788696   -1.8676322497   -0.5591567609
C        7.3909842381   -7.4135982287   -3.0880193920
C        4.0616311173   -0.9102166669   -1.6450817028
N        6.1198786354   -5.3562638290   -2.3837329077
N        4.0199593806   -3.1259534728   -0.5634172254
N        4.8633369686   -3.6304376842   -1.5127880571
S        4.7125253699   -6.1913562624   -0.3508541648
Cl       0.0571643666   -0.1014356145    4.0247074071
H        3.0355305165    0.7173353278    0.2723774487
H        2.2431357792   -3.4318918260    1.2147941894
H        1.5794147219    1.3884643581    2.1028188590
H        0.8025977954   -2.7058078486    3.0618960864
H        5.8706157101   -8.3589554466   -0.9032716055
H        6.8980722129   -7.7571428833   -4.0014846846
H        8.2032461707   -6.7325001671   -3.3572863854
H        7.8136661922   -8.2750979616   -2.5633374649
H        5.1110395224   -0.6381318063   -1.5002896970
H        3.9552228563   -1.3832233110   -2.6255674155
H        3.4537534232   -0.0045946665   -1.6687900791
H        5.2900732256   -3.0799025014   -2.2508662880
29   

C        2.3237398333   -0.0866313973    0.6461110515
C        2.3095859497   -2.3330388110    1.5024690183
C        1.4352989594    0.2940096007    1.6608209944
C        1.4228728803   -1.9456657219    2.5124917691
C        5.6937222276   -7.3486252089   -1.1862347619
C        2.7842542972   -1.4107702184    0.5405130985
C        0.9767247518   -0.6281456138    2.6018121250
C        6.3688488292   -6.7427226996   -2.2119929817
C        5.3038113481   -4.9652925127   -1.4435166804
C        3.7223105480   -1.8444774327   -0.5209381216
C        7.3218660399   -7.4763268707   -3.1036599628
C        4.2523150168   -0.8930025920   -1.5680491953
N        6.1491590285   -5.3786228499   -2.3491233202
N        4.0927139663   -3.1098757456   -0.5242288913
N        4.9621874065   -3.6200886708   -1.4470849881
S        4.7068555347   -6.1939246500   -0.3327625683
Cl      -0.1301764620   -0.1429895847    3.8622321839
H        2.6198476197    0.7009910399   -0.0305638425
H        2.6257127442   -3.3709188150    1.4776085032
H        1.0940805850    1.3208693708    1.7225701076
H        1.0769562914   -2.6755212745    3.2351287096
H        5.7659890507   -8.3988220078   -0.9344781433
H        6.8061102782   -7.7880226618   -4.0159921510
H        8.1570339440   -6.8236995435   -3.3732958287
H        7.7159625951   -8.3607522367   -2.5951741021
H        5.3424032388   -0.8412243137   -1.4926092802
H        3.9954996033   -1.2687453436   -2.5628404532
H        3.8689064273    0.1214800692   -1.4963910321
H        5.4044170540   -3.0752677626   -2.1802723695
29   

C        2.0925954732   -0.1962426710    0.4886399674
C        2.4660828547   -2.2666196256    1.6558833108
C        1.1485210084    0.1703819052    1.4564817754
C        1.5218378850   -1.8948754043    2.6191612675
C        5.6649311601   -7.3363336371   -1.2459182906
C        2.7776713247   -1.4210588956    0.5685505681
C        0.8553792679   -0.6722907891    2.5301967922
C        6.3514907155   -6.7158382804   -2.2551925995
C        5.3426592562   -4.9353894614   -1.4206868130
C        3.7812420112   -1.8232405119   -0.4427294970
C        7.2730827153   -7.4474080469   -3.1808671213
C        4.3652058702   -0.8227846618   -1.4131727084
N        6.1721400062   -5.3418062128   -2.3439702023
N        4.1409086162   -3.0908011632   -0.4709170478
N        5.0337919427   -3.5827692361   -1.3807881666
S        4.7173191274   -6.1831020953   -0.3473758077
Cl      -0.3238562665   -0.2090569437    3.7318794587
H        2.2507361549    0.4943905609   -0.3295247545
H        2.9614227359   -3.2261445322    1.7649068087
H        0.6296404931    1.1183123197    1.3740223887
H        1.3028144956   -2.5620951732    3.4446195076
H        5.7063100838   -8.3964058568   -1.0313411053
H        6.7406458867   -7.7071290484   -4.0999178487
H        8.1281041653   -6.8138232337   -3.4329839248
H        7.6398677796   -8.3632480307   -2.7088958512
H        5.4492835280   -0.9525968473   -1.4781749475
H        3.9346162351   -0.9777237662   -2.4065851904
H        4.1938805974    0.2087721618   -1.1022947816
H        5.4804562430   -3.0277537674   -2.1035379226
29   

C        1.9062605249   -0.2971349334    0.3442880173
C        2.5575151467   -2.1525021695    1.7347204125
C        0.9396330234    0.0656736457    1.2906437008
C        1.5898478238   -1.7855827338    2.6767976655
C        5.6950343449   -7.3023656328   -1.2517376265
C        2.7426732884   -1.4071612947    0.5531882423
C        0.7740022537   -0.6719293870    2.4655263964
C        6.3763695227   -6.6718662878   -2.2583592510
C        5.3241327780   -4.9094296389   -1.4391512870
C        3.7547389855   -1.8085589353   -0.4487221090
C        7.2618244748   -7.4001849462   -3.2211912357
C        4.4070082073   -0.7809911037   -1.3451221020
N        6.1554595203   -5.3052206610   -2.3654035171
N        4.0862620231   -3.0818093553   -0.5018842219
N        4.9960612041   -3.5612788449   -1.4013898603
S        4.7279074322   -6.1629825960   -0.3562461364
Cl      -0.4338470658   -0.2158212046    3.6412248490
H        1.9802284550    0.2926307069   -0.5617131159
H        3.1716945796   -3.0264390751    1.9273146524
H        0.3038084433    0.9251439510    1.1128818331
H        1.4675401089   -2.3716830082    3.5801449581
H        5.7425232693   -8.3635092040   -1.0438306316
H        7.1818712346   -6.9493940958   -4.2144439931
H        8.3004977314   -7.3378450506   -2.8854927631
H        6.9693733193   -8.4519418408   -3.2875939234
H        5.4952945197   -0.8792537290   -1.2945969956
H        4.0877241666   -0.9356821129   -2.3797188191
H        4.1551891447    0.2375904287   -1.0410859694
H        5.4513748329   -2.9974253517   -2.1118519723
29   

C        1.7822378618   -0.4242069420    0.2297570962
C        2.6811476474   -2.0083738862    1.8082581101
C        0.7978312031   -0.0637353761    1.1582319507
C        1.6950668134   -1.6448053288    2.7327258922
C        5.5965519763   -7.3204352399   -1.3379860734
C        2.7515270176   -1.3907701377    0.5467547359
C        0.7470903741   -0.6670388217    2.4183257495
C        6.3394101541   -6.6762818046   -2.2909784658
C        5.2957358240   -4.9135812724   -1.4614160602
C        3.7694402211   -1.8021769389   -0.4472620673
C        7.2491088587   -7.3968479679   -3.2368937119
C        4.4936446477   -0.7595532068   -1.2687349946
N        6.1585574073   -5.3014250229   -2.3619021966
N        4.0665460600   -3.0817573894   -0.5199744420
N        5.0015571310   -3.5587668027   -1.3944311898
S        4.6187466238   -6.1849328703   -0.4491760174
Cl      -0.4830236602   -0.2155723098    3.5725292704
H        1.7821571772    0.0493287076   -0.7455873912
H        3.3985580604   -2.7794737310    2.0703260889
H        0.0594278645    0.6866929312    0.9010457974
H        1.6597550979   -2.1284823893    3.7018967420
H        5.6070600111   -8.3886777865   -1.1640886686
H        7.2326596225   -6.9073675390   -4.2147990303
H        8.2711686409   -7.3807420778   -2.8488773649
H        6.9281872169   -8.4353587479   -3.3578509371
H        5.5727043116   -0.8430563504   -1.1098924366
H        4.2801076722   -0.9086647366   -2.3309887365
H        4.1834107766    0.2489893525   -0.9824865792
H        5.5053909956   -2.9856988918   -2.0635870838
29   

C        1.6701449596   -0.5938102025    0.1485782222
C        2.8006276288   -1.8317770160    1.8815283450
C        0.6669964175   -0.2407803981    1.0595960437
C        1.7954932293   -1.4767270207    2.7888559772
C        5.4989249732   -7.3299993152   -1.4341842684
C        2.7624172527   -1.3778752743    0.5533502181
C        0.7223619381   -0.6747725930    2.3879834302
C        6.3013885002   -6.6756472355   -2.3301597974
C        5.2770571564   -4.9118217641   -1.4791008424
C        3.8015750236   -1.7925242901   -0.4233856540
C        7.2277369998   -7.3902177044   -3.2643754730
C        4.5946035282   -0.7368428138   -1.1611385888
N        6.1659054686   -5.2939902468   -2.3564431182
N        4.0616363300   -3.0768662583   -0.5262970072
N        5.0212881619   -3.5515435987   -1.3747435356
S        4.5188098955   -6.1969237536   -0.5448943281
Cl      -0.5309086691   -0.2335928751    3.5210579725
H        1.5966884891   -0.2587368125   -0.8801439232
H        3.6165222191   -2.4697477628    2.2053461174
H       -0.1677832122    0.3701389173    0.7364483631
H        1.8421181173   -1.8308505168    3.8120312153
H        5.4690613715   -8.4036640167   -1.3006376805
H        7.2698403785   -6.8635614377   -4.2219884573
H        8.2318554032   -7.4238218473   -2.8330755068
H        6.8788059626   -8.4117848069   -3.4398269006
H        5.6568417941   -0.8295197457   -0.9171140182
H        4.4664568536   -0.8600734997   -2.2402691540
H        4.2575118696    0.2641391340   -0.8771468348
H        5.5725322900   -2.9712949014   -1.9988133327
29   

C        1.5738173093   -0.8245973682    0.0642534545
C        2.8953135930   -1.5926269700    1.9288129151
C        0.5486247648   -0.4584057686    0.9450249526
C        1.8682674654   -1.2253190575    2.8064098598
C        5.3814047225   -7.3487717081   -1.5734528948
C        2.7670216958   -1.3807728306    0.5480870660
C        0.6877540071   -0.6513036590    2.3235005701
C        6.2488374839   -6.6875206745   -2.4011873858
C        5.2521772856   -4.9240710452   -1.5170296977
C        3.8483878308   -1.7989052280   -0.3897328649
C        7.1902765639   -7.3960683288   -3.3248460578
C        4.7045268840   -0.7374621044   -1.0444716605
N        6.1664636615   -5.3017582540   -2.3698940165
N        4.0608651680   -3.0862388397   -0.5398449000
N        5.0426137282   -3.5605920581   -1.3626995297
S        4.4033990367   -6.2184491837   -0.6784325807
Cl      -0.5920860394   -0.1932744544    3.4195833273
H        1.4412455789   -0.6788680072   -1.0021704056
H        3.7982655485   -2.0515235963    2.3174499560
H       -0.3671634566   -0.0252157162    0.5601028835
H        1.9820868882   -1.3911037194    3.8713186741
H        5.3052491804   -8.4252633056   -1.4907676850
H        7.2944889359   -6.8309276742   -4.2553904894
H        8.1719945019   -7.4860903447   -2.8520734345
H        6.8131665133   -8.3952556956   -3.5605581680
H        5.7483986519   -0.8609125029   -0.7420247609
H        4.6376385462   -0.8222480625   -2.1327901474
H        4.3673842042    0.2596301684   -0.7466340167
H        5.6456122326   -2.9758083049   -1.9322849280
29   

C        1.5613619961   -1.0618340796    0.1393338493
C        3.0559647259   -1.2965200915    2.0166981601
C        0.5459934355   -0.6347824844    1.0038620127
C        2.0388043099   -0.8682551048    2.8782198161
C        5.0980204066   -7.3557212065   -1.8985165900
C        2.8286965820   -1.3933844943    0.6363144241
C        0.7758316967   -0.5313758629    2.3799519213
C        6.1297814305   -6.7054871848   -2.5210559379
C        5.1478010697   -4.9439215075   -1.6168849501
C        3.9189654320   -1.8241890141   -0.2901936870
C        7.1957132837   -7.4211588567   -3.2912780632
C        4.8340175014   -0.7719456378   -0.8776584857
N        6.1573699766   -5.3276683725   -2.3514006006
N        4.0389137125   -3.1070756612   -0.5423969467
N        5.0280927784   -3.5863699584   -1.3536342695
S        4.0753993825   -6.2229960453   -1.0578125707
Cl      -0.4903972364    0.0060710924    3.4555824667
H        1.3645393352   -1.1406300695   -0.9243746339
H        4.0282584520   -1.5581070180    2.4199253781
H       -0.4307830208   -0.3819066400    0.6083330324
H        2.2260148961   -0.7965983321    3.9432640592
H        4.9412188064   -8.4264779274   -1.9173278818
H        6.9517985366   -7.4078527159   -4.3569845693
H        8.1592265538   -6.9259028805   -3.1411708711
H        7.2775055877   -8.4587940722   -2.9554790289
H        5.8671218029   -0.9629799228   -0.5737101901
H        4.7750437365   -0.7935854448   -1.9695989702
H        4.5417980299    0.2225972161   -0.5281337955
H        5.7462989431   -3.0115620648   -1.7823526153
29   

C        1.5517503003   -1.4138460068    0.2083646926
C        3.0730736812   -0.9840249054    2.0299805448
C        0.4851173436   -0.9630945852    0.9954168865
C        2.0038548024   -0.5330458525    2.8134983993
C        5.0096544326   -7.3234841319   -2.0642924604
C        2.8566745827   -1.4376884628    0.7203230245
C        0.7010322178   -0.5184316863    2.3041080392
C        6.0846003212   -6.6791108004   -2.6157815232
C        5.1454403525   -4.9376177041   -1.6309145043
C        3.9945139527   -1.8595807158   -0.1449185505
C        7.1447521344   -7.3899470227   -3.3983091391
C        4.9367950362   -0.8033812494   -0.6791110319
N        6.1610195680   -5.3165846272   -2.3595527603
N        4.0738102570   -3.1277967257   -0.4767587473
N        5.0702776374   -3.5952624568   -1.2858934263
S        4.0066019752   -6.2034023560   -1.1840797863
Cl      -0.6299557270    0.0478194258    3.2823663354
H        1.3682463793   -1.7545001885   -0.8052027662
H        4.0766427428   -0.9837997180    2.4410093537
H       -0.5202062638   -0.9562731317    0.5907473168
H        2.1814198587   -0.1891003500    3.8257717356
H        4.8121820770   -8.3838923931   -2.1537617212
H        6.9246414296   -7.3175864736   -4.4668207107
H        8.1195017406   -6.9332891452   -3.2046674912
H        7.1873267833   -8.4446005089   -3.1119040226
H        5.9602740373   -1.0204878307   -0.3605995732
H        4.9005167226   -0.7891457812   -1.7722100335
H        4.6527438809    0.1845653246   -0.3051347688
H        5.8237364973   -3.0244550378   -1.6553571525
29   

C        1.5734138330   -1.6549796411    0.2956960588
C        3.0681683678   -0.7371089717    1.9512005081
C        0.4762250110   -1.2065246075    1.0407437680
C        1.9677769430   -0.2899159014    2.6925999259
C        4.9248671863   -7.2829210703   -2.1787193214
C        2.8841721437   -1.4364733401    0.7476348019
C        0.6628428208   -0.5209316780    2.2454045295
C        6.0451879204   -6.6616800694   -2.6623079552
C        5.1346865731   -4.9224408619   -1.6470970956
C        4.0419314028   -1.8614908119   -0.0795509985
C        7.1079657655   -7.3842663926   -3.4303661901
C        5.0412538034   -0.8269699491   -0.5473965324
N        6.1634779326   -5.3139276906   -2.3500559743
N        4.0872835997   -3.1177251627   -0.4634166538
N        5.0964974640   -3.5922823044   -1.2524512077
S        3.9307273343   -6.1575697411   -1.2950961675
Cl      -0.7070388331    0.0398466125    3.1717514881
H        1.4101312841   -2.1833182492   -0.6380142960
H        4.0707701270   -0.5431220591    2.3160570274
H       -0.5303510892   -1.3900531848    0.6835409086
H        2.1222441094    0.2427283698    3.6237133222
H        4.6907659157   -8.3305349578   -2.3172116849
H        6.9332214279   -7.2641620501   -4.5029539478
H        8.0908038902   -6.9735231873   -3.1823867330
H        7.0993852842   -8.4495757701   -3.1830365839
H        6.0404238206   -1.0824487696   -0.1833739591
H        5.0599313335   -0.7937405126   -1.6405740168
H        4.7717928812    0.1649790723   -0.1737763228
H        5.8863559860   -3.0382602084   -1.5674390472
29   

C        1.6171136347   -1.8208713071    0.4035976886
C        3.0576181132   -0.5343217317    1.8482582189
C        0.5032508424   -1.3869777923    1.1321665453
C        1.9397936457   -0.1034130006    2.5729831675
C        4.8418283274   -7.2307576985   -2.2737889786
C        2.9136934256   -1.4067286714    0.7549840386
C        0.6537320833   -0.5252278242    2.2226531244
C        6.0039728885   -6.6419001234   -2.6952557276
C        5.1249726878   -4.8977873775   -1.6608602559
C        4.0806579251   -1.8407763793   -0.0473040898
C        7.0654352461   -7.3839614149   -3.4463709923
C        5.1489215952   -0.8440212651   -0.4366326053
N        6.1639347446   -5.3101649467   -2.3363254873
N        4.0991594162   -3.0873578485   -0.4675233532
N        5.1227013210   -3.5793402237   -1.2270263855
S        3.8598804934   -6.0924034240   -1.3931935590
Cl      -0.7374474714    0.0149771057    3.1292879212
H        1.4747344082   -2.4885470016   -0.4401608939
H        4.0421910575   -0.1929407382    2.1476504480
H       -0.4886437878   -1.7208828201    0.8508737239
H        2.0661279405    0.5641457516    3.4173540630
H        4.5715576122   -8.2631834985   -2.4541896420
H        6.9372047559   -7.2231673896   -4.5202090108
H        8.0538343616   -7.0225917561   -3.1486408955
H        7.0040455896   -8.4551993220   -3.2347045442
H        6.1084465095   -1.1386250451   -0.0022014039
H        5.2491390290   -0.8110659695   -1.5254115760
H        4.8945613078    0.1601479236   -0.0871246241
H        5.9459066759   -3.0483161887   -1.4923126048
29   

C        1.6594230187   -1.9602811568    0.5259989799
C        3.0169004557   -0.3770483431    1.7360596670
C        0.5367054536   -1.5495749479    1.2541758844
C        1.8894163236    0.0288547119    2.4602566533
C        4.7739587930   -7.1695797048   -2.3793314864
C        2.9227413522   -1.3801659598    0.7512358250
C        0.6402501942   -0.5514054953    2.2260695665
C        5.9780230599   -6.6167276387   -2.7251816664
C        5.1154476156   -4.8668300003   -1.6867527450
C        4.0968534930   -1.8178811448   -0.0356499507
C        7.0468540265   -7.3802602607   -3.4436042322
C        5.2280385839   -0.8607286212   -0.3340763512
N        6.1708238367   -5.3024360418   -2.3208841732
N        4.0986061639   -3.0531311932   -0.4919781042
N        5.1400610701   -3.5614261872   -1.2156600822
S        3.7932002028   -6.0167292155   -1.5165059990
Cl      -0.7622201578   -0.0415507026    3.1328985477
H        1.5424897855   -2.7380767154   -0.2219596814
H        3.9683928480    0.0890208297    1.9635350344
H       -0.4260064519   -2.0099154135    1.0650680442
H        1.9805364302    0.7996798653    3.2166355765
H        4.4734486391   -8.1850987715   -2.6027720682
H        6.9859074483   -7.1779366704   -4.5163458471
H        8.0316614917   -7.0738382183   -3.0797187473
H        6.9277133082   -8.4541681498   -3.2743217840
H        6.1325970037   -1.1807126123    0.1909474226
H        5.4312578255   -0.8473757117   -1.4088358613
H        4.9819252882    0.1600354412   -0.0326203887
H        5.9954216532   -3.0556471323   -1.4219343430
29   

C        1.7214130773   -2.0872880607    0.6633168289
C        2.9509876954   -0.2399082904    1.6037902417
C        0.5889484907   -1.6977832234    1.3878212310
C        1.8130197856    0.1426244032    2.3243509963
C        4.7133419823   -7.1099028932   -2.4877534387
C        2.9282127725   -1.3613675554    0.7464252832
C        0.6224752110   -0.5791735902    2.2220824178
C        5.9541537047   -6.5965317739   -2.7559778072
C        5.1058098121   -4.8407763785   -1.7158241290
C        4.1126750862   -1.8012238488   -0.0246090483
C        7.0295635183   -7.3830884546   -3.4388542124
C        5.3029071174   -0.8940093406   -0.2340282901
N        6.1755070602   -5.3015400348   -2.3066235855
N        4.0989026281   -3.0230797302   -0.5190208821
N        5.1550173032   -3.5501579273   -1.2075263910
S        3.7335552417   -5.9415305724   -1.6449001011
Cl      -0.7923972853   -0.0965319685    3.1245442359
H        1.6456025812   -2.9641719001    0.0283097128
H        3.8493536947    0.3469853584    1.7461372910
H       -0.3272637623   -2.2704161616    1.3032290903
H        1.8514380356    1.0069271608    2.9771343016
H        4.3863729156   -8.1066806966   -2.7542954269
H        7.0384403830   -7.1451356122   -4.5059586957
H        8.0038259425   -7.1309990839   -3.0105734697
H        6.8565618286   -8.4555719900   -3.3124432042
H        6.1480355006   -1.2495291034    0.3623658157
H        5.5929574564   -0.8972196626   -1.2887448677
H        5.0872023749    0.1419126870    0.0315019251
H        6.0386701756   -3.0731390303   -1.3544122460
29   

C        1.8203703882   -2.2238510969    0.9047885438
C        2.8406083702   -0.1130713026    1.4469934092
C        0.6603739206   -1.8349766096    1.5842423305
C        1.6755519957    0.2672556544    2.1244887165
C        4.7058900580   -7.0544246459   -2.5561950076
C        2.9452913146   -1.3747898125    0.8137165683
C        0.5759620996   -0.5869686809    2.1998593132
C        5.9607994368   -6.5557414509   -2.7834268530
C        5.1312107927   -4.8288644737   -1.6816799161
C        4.1542549362   -1.8260670897    0.0859375352
C        7.0302664421   -7.3334969218   -3.4854277319
C        5.3867781581   -0.9620058969   -0.0444295951
N        6.2010637646   -5.2863428969   -2.2747124779
N        4.1309385786   -3.0313414627   -0.4486929202
N        5.1968345627   -3.5612605239   -1.1201711859
S        3.7364711719   -5.9033499617   -1.6782677861
Cl      -0.8727941965   -0.1041857804    3.0467816854
H        1.8260301924   -3.2072409651    0.4459139196
H        3.6422638801    0.6112592693    1.4424230539
H       -0.1856405405   -2.5104388870    1.6345919965
H        1.6204942792    1.2393020808    2.6007087965
H        4.3630581853   -8.0315103289   -2.8713034428
H        7.0575418774   -7.0511998384   -4.5413707353
H        8.0033825196   -7.1182799698   -3.0350162460
H        6.8355615010   -8.4068016607   -3.4065794646
H        6.2346005111   -1.4616476678    0.4332703530
H        5.6224320325   -0.8205991902   -1.1033143151
H        5.2872377811    0.0249248963    0.4016103697
H        6.0899262308   -3.0938073544   -1.2378135833
