28   

C       -3.3211639095    4.3777546848    2.2439209007
C       -3.7904854389    3.1659424913    2.7566962085
C       -2.3300163874    4.3765762803    1.2590289706
C       -3.2713852115    1.9557803562    2.2825850547
C       -1.8018103468    3.1653662131    0.7966524503
C       -2.2641114281    1.9396938590    1.3025335613
C       -0.5315446173    0.3972595081    0.1308222595
C        0.5550296648   -0.2208897804    0.8478398841
C       -0.5199770938    0.0341626088   -1.3278069225
C       -1.7052720252    0.6891145939    0.8350892389
C        1.9100394999   -0.2984213549   -1.1906233907
C        0.6746872188   -0.9309493822   -3.2783729382
N        1.6950042161   -0.6095960624    0.2009470423
N        0.6614765821   -0.3978194363   -1.9208512452
O        0.4841735281   -0.4676255275    2.0390441060
O       -1.5565202070    0.0850690169   -1.9733745026
H       -3.7247866494    5.3154576061    2.6090920747
H       -4.5548754475    3.1625037685    3.5254641941
H       -1.9694148966    5.3145925830    0.8526197515
H       -3.6443616060    1.0259781352    2.6969653781
H       -1.0348587843    3.1790850030    0.0308061548
H       -2.0794452074   -0.1564223264    1.4029034957
H        2.3198315217    0.7129932997   -1.2857529617
H        2.6364313196   -1.0050793479   -1.6058350064
H        1.5986029215   -0.6445099340   -3.7906210303
H       -0.1602345383   -0.5409229685   -3.8693654934
H        0.6062350604   -2.0230867379   -3.2516278934
H        2.3583470753   -1.1332862516    0.7589273680
28   

C       -3.4678232664    4.3769209064    2.0371540984
C       -3.8199586041    3.2241959966    2.7433771635
C       -2.5585116182    4.2915341004    0.9797333463
C       -3.2647049686    1.9887816127    2.3910623503
C       -1.9924355537    3.0574325443    0.6389129606
C       -2.3346324603    1.8905729616    1.3412385514
C       -0.5676688164    0.3065544586    0.3024639628
C        0.4427286175   -0.4969293810    0.9442993025
C       -0.5892822519    0.1153714712   -1.1833444538
C       -1.7301788891    0.6159589429    0.9992064579
C        1.7743971794   -0.5733492416   -1.1151739201
C        0.4921789145   -0.6966797996   -3.2628267951
N        1.5216902714   -0.9664452653    0.2490681645
N        0.5312300498   -0.3854227872   -1.8378449501
O        0.3622575126   -0.8205218573    2.1165851294
O       -1.5894754816    0.4143955032   -1.8197988762
H       -3.8999621147    5.3338080164    2.3075709281
H       -4.5214138433    3.2867599595    3.5675894191
H       -2.2917463036    5.1813144020    0.4210156293
H       -3.5471618538    1.1071195873    2.9552348235
H       -1.2941252222    3.0042215561   -0.1887603496
H       -2.0053399956   -0.1314470086    1.7367425469
H        2.3550296273    0.3553887251   -1.1303668007
H        2.3657385425   -1.3555074550   -1.6030495964
H        0.9287512237    0.1246237227   -3.8396354822
H       -0.5341682873   -0.8591427800   -3.6078977122
H        1.0510139513   -1.6155160677   -3.4667054017
H        2.1315082566   -1.5911044258    0.7624920694
28   

C       -3.5031498073    4.3690639377    1.9197309364
C       -3.7844958554    3.2803974458    2.7479530865
C       -2.6365362531    4.2089279724    0.8358748569
C       -3.2018675932    2.0344170920    2.4903748189
C       -2.0414590188    2.9659758575    0.5896675096
C       -2.3132450257    1.8608503860    1.4140811042
C       -0.5585533986    0.2239358846    0.4581799466
C        0.4077233696   -0.6814261165    1.0302450649
C       -0.5737900502    0.1834651367   -1.0381814923
C       -1.6809349210    0.5709532910    1.1814983987
C        1.7468438560   -0.6454282654   -1.0253825469
C        0.4879609500   -0.4718198013   -3.1822183200
N        1.4589867439   -1.1509812645    0.2940796624
N        0.5251607530   -0.3124299882   -1.7321667850
O        0.3217840403   -1.0813326021    2.1784796219
O       -1.5479152666    0.5954197077   -1.6518951178
H       -3.9569718058    5.3339229599    2.1160919345
H       -4.4523116266    3.4010723316    3.5933635466
H       -2.4249858212    5.0474175124    0.1822945302
H       -3.4303108038    1.2043914437    3.1493755775
H       -1.3769122206    2.8612429137   -0.2600533376
H       -1.9101904685   -0.1069518490    1.9977222160
H        2.3833883564    0.2428479607   -0.9496896563
H        2.2936771887   -1.4125293474   -1.5839804417
H        0.9724144692    0.3814826134   -3.6670321636
H       -0.5408081739   -0.5449741852   -3.5497984058
H        1.0024679752   -1.3918202988   -3.4771177416
H        2.0441595250   -1.8344235175    0.7589883410
28   

C       -3.5262095029    4.3227256406    1.7806145984
C       -3.7447791088    3.2833783087    2.6862168758
C       -2.6839859841    4.1196172202    0.6854762272
C       -3.1256645660    2.0436687739    2.4929819106
C       -2.0526372608    2.8835172469    0.5021933546
C       -2.2646423990    1.8228452537    1.4018539458
C       -0.5523735902    0.1162681034    0.4755546056
C        0.3802292297   -0.8593715400    0.9866935367
C       -0.5681414297    0.1771205109   -1.0189372246
C       -1.6017219237    0.5333862538    1.2552839502
C        1.7287063123   -0.7162811704   -1.0552161078
C        0.4864055354   -0.3598577209   -3.1996817492
N        1.4106571702   -1.3189303866    0.2157037775
N        0.5235955793   -0.2932292224   -1.7422189389
O        0.2959665634   -1.3139865489    2.1146007870
O       -1.5427496675    0.6182209514   -1.6109290097
H       -4.0081599114    5.2828433859    1.9267676708
H       -4.3925397999    3.4372753269    3.5418017026
H       -2.5172649472    4.9204853006   -0.0257169560
H       -3.3078899482    1.2537790361    3.2129402691
H       -1.4012441883    2.7612596698   -0.3537995662
H       -1.7822801514   -0.0859595269    2.1282581590
H        2.3880880092    0.1449320364   -0.9017835893
H        2.2609756782   -1.4505885142   -1.6691759048
H        0.9657442584    0.5254736549   -3.6289382612
H       -0.5421914441   -0.4161257902   -3.5706825894
H        1.0061128945   -1.2557427563   -3.5537437435
H        1.9834900320   -2.0386104288    0.6394454199
28   

C       -3.6688424717    4.4605813109    1.7853427614
C       -3.7722259581    3.4535731019    2.7450984577
C       -2.8792933763    4.2555092688    0.6526956264
C       -3.0936894299    2.2434043883    2.5665666702
C       -2.1884051966    3.0495220464    0.4826728721
C       -2.2890529636    2.0153855379    1.4334058598
C       -0.6164262485    0.2767703450    0.4624806051
C        0.3039991313   -0.7456231864    0.9007778697
C       -0.6535541906    0.4281227142   -1.0242559032
C       -1.5706485656    0.7515161512    1.3198164504
C        1.6359708697   -0.4774708931   -1.1348716681
C        0.3829704057    0.0160638705   -3.2443210170
N        1.3110045899   -1.1766144474    0.0838955079
N        0.4324718529    0.0043582265   -1.7853096872
O        0.2428392049   -1.2517887386    2.0080824929
O       -1.6496414694    0.8628239697   -1.5835908714
H       -4.1970752650    5.3978145125    1.9196275848
H       -4.3770592341    3.6093422512    3.6312509907
H       -2.7972273007    5.0331407997   -0.0980082768
H       -3.1894266550    1.4797760624    3.3302804643
H       -1.5722229696    2.9439549069   -0.3995261979
H       -1.6697217175    0.1725771998    2.2325997003
H        2.2997926061    0.3653732678   -0.9134548383
H        2.1649560672   -1.1638968568   -1.8045485799
H        0.9072258682    0.8955301894   -3.6309733434
H       -0.6478120866    0.0346772106   -3.6126727114
H        0.8522004586   -0.8868310042   -3.6476473242
H        1.8885366434   -1.9186652389    0.4599626306
28   

C       -3.7083325281    4.4359223706    1.7478154871
C       -3.7111455294    3.4776588123    2.7605226904
C       -2.9767266539    4.2039057566    0.5825829991
C       -2.9931145463    2.2880630664    2.6008868013
C       -2.2460925470    3.0189841412    0.4302116916
C       -2.2496747969    2.0277833295    1.4321895253
C       -0.6369354768    0.2197057124    0.4523287466
C        0.2399059069   -0.8518584966    0.8647336875
C       -0.6443921047    0.4254178471   -1.0275293286
C       -1.4954000090    0.7808751293    1.3524531878
C        1.6222178391   -0.5371389325   -1.1272335198
C        0.4354199799    0.0846523600   -3.2405451897
N        1.2412647559   -1.2880645893    0.0436844411
N        0.4510190564    0.0131979563   -1.7821695605
O        0.1579582334   -1.3853994397    1.9578127411
O       -1.6349987359    0.8603587885   -1.5953532327
H       -4.2676572553    5.3570371495    1.8669297330
H       -4.2690219102    3.6549256392    3.6730760730
H       -2.9685421501    4.9458211258   -0.2076983686
H       -3.0135998295    1.5635942248    3.4073364492
H       -1.6711638404    2.9096920544   -0.4773204501
H       -1.5366035793    0.2500132784    2.2982229500
H        2.3035296030    0.2727534130   -0.8444231386
H        2.1497561726   -1.2039711379   -1.8175438647
H        0.9890876834    0.9659799810   -3.5789597996
H       -0.5852293484    0.1430628087   -3.6320568054
H        0.8930272570   -0.8121173696   -3.6700028358
H        1.7947620033   -2.0555945374    0.4044396189
28   

C       -3.7690678959    4.4409133879    1.7725299133
C       -3.6498039626    3.5346814941    2.8243206139
C       -3.1183459713    4.1826994929    0.5662918700
C       -2.8938323487    2.3693931618    2.6620504436
C       -2.3486557054    3.0231103430    0.4101940576
C       -2.2323895424    2.0782602958    1.4507653261
C       -0.6758792316    0.2143017146    0.4516183265
C        0.1512250487   -0.9024720825    0.8480387028
C       -0.6348871279    0.4707834717   -1.0192342357
C       -1.4418727712    0.8525603615    1.3820495918
C        1.6038595113   -0.5586827216   -1.0855568239
C        0.5112886291    0.1856251484   -3.2086468076
N        1.1545290348   -1.3482193403    0.0347036014
N        0.4764397086    0.0628328186   -1.7536035813
O        0.0336797982   -1.4598368474    1.9259077038
O       -1.6122308700    0.9052322075   -1.6085832423
H       -4.3588120893    5.3426832386    1.8930369684
H       -4.1427989386    3.7330975515    3.7693161853
H       -3.2022362988    4.8859261085   -0.2544117849
H       -2.8222995291    1.6866995695    3.5013993380
H       -1.8381990021    2.9099690490   -0.5326420373
H       -1.4247460297    0.3607707435    2.3493552981
H        2.3024871036    0.2120105132   -0.7420893397
H        2.1321416020   -1.2123947385   -1.7877955074
H        1.1184026512    1.0492717038   -3.4972826053
H       -0.4908891998    0.3093423366   -3.6312290897
H        0.9384375133   -0.7174113303   -3.6559809599
H        1.6754893648   -2.1425318140    0.3858302033
28   

C       -3.8328992071    4.4479910320    1.8170561187
C       -3.5642853822    3.6200634091    2.9043150353
C       -3.2888536393    4.1408460472    0.5708342965
C       -2.7670589606    2.4832881102    2.7383394313
C       -2.4779580544    3.0103817271    0.4090106198
C       -2.2101927369    2.1404493356    1.4873272445
C       -0.6975305456    0.2311095879    0.4826879803
C        0.0855956152   -0.9162095841    0.8797748104
C       -0.5959032775    0.5240289068   -0.9781492033
C       -1.3785390157    0.9417304749    1.4277949484
C        1.6183443950   -0.5623967056   -0.9884349392
C        0.6450028601    0.2954476836   -3.1225709558
N        1.1015153987   -1.3720829983    0.0880042704
N        0.5381039477    0.1165585818   -1.6773075891
O       -0.0739305376   -1.4847569986    1.9463334331
O       -1.5594704820    0.9325342392   -1.6058901556
H       -4.4557863851    5.3268621995    1.9400741507
H       -3.9739631039    3.8566468871    3.8798461431
H       -3.4889446729    4.7833776640   -0.2790759501
H       -2.5819608345    1.8629226127    3.6081797071
H       -2.0642529498    2.8689952430   -0.5742031973
H       -1.2965379341    0.4951004962    2.4135156665
H        2.3298535034    0.1719509761   -0.5957717685
H        2.1474458013   -1.2122726891   -1.6938871485
H        1.6270793943    0.7058656557   -3.3774808163
H       -0.1067785081    0.9939340863   -3.5037695486
H        0.5131627533   -0.6642990333   -3.6319192159
H        1.5875349918   -2.1892873078    0.4367210389
28   

C       -3.8680615500    4.3964760908    1.8344698894
C       -3.2069021373    3.8305635978    2.9214030690
C       -3.7161124529    3.8294648959    0.5706475797
C       -2.3822882468    2.7162053166    2.7367257045
C       -2.8972536735    2.7080233147    0.3890840159
C       -2.1802111503    2.1379666805    1.4640320951
C       -0.7076732070    0.2076594637    0.4350667388
C       -0.0577014049   -1.0252775463    0.8294752434
C       -0.5410974475    0.5520283975   -1.0081595666
C       -1.3050384471    0.9713541738    1.3974625175
C        1.3117103511   -1.0671875751   -1.1913602083
C        0.5006202815    0.1330402417   -3.2136919099
N        0.7782881673   -1.6961962354   -0.0142398358
N        0.3338801085   -0.1899548653   -1.7997636702
O       -0.2136609311   -1.5231785891    1.9314864482
O       -1.0168685874    1.5553628398   -1.5076448644
H       -4.5063147593    5.2620013221    1.9720453674
H       -3.3318157597    4.2540433088    3.9115853685
H       -4.2467413882    4.2475982105   -0.2771848436
H       -1.8849670349    2.3063272812    3.6086557371
H       -2.9067891153    2.2857847476   -0.6010649460
H       -1.0805879142    0.6222145604    2.4001604413
H        2.2059250827   -0.4913850209   -0.9270135016
H        1.6015337809   -1.8435000826   -1.9071399552
H        1.2144590854    0.9553741444   -3.3291242211
H       -0.4538053914    0.4290177306   -3.6611584943
H        0.8677132330   -0.7372516807   -3.7664168621
H        1.1728357453   -2.5471828702    0.3674933202
28   

C       -3.9607573241    4.2914291378    1.7287340151
C       -3.2519149006    3.8331574062    2.8377509619
C       -3.7570095221    3.6903011836    0.4866967205
C       -2.3333035225    2.7877703166    2.6984832014
C       -2.8435969256    2.6375346457    0.3507817540
C       -2.0922747126    2.1753871305    1.4509623492
C       -0.5941193530    0.2612937064    0.4442298619
C        0.0041789369   -0.9911865339    0.8488015823
C       -0.3536808879    0.6293516613   -0.9810754992
C       -1.1377057581    1.0732784636    1.4022842037
C        1.2805229706   -1.2109754203   -1.2356602072
C        0.6420018242    0.1810607294   -3.1947401413
N        0.7610373667   -1.7408022520   -0.0033237460
N        0.4285510466   -0.1832913377   -1.7976893304
O       -0.1401606451   -1.4478891359    1.9700143277
O       -0.6987159640    1.7103091378   -1.4301719146
H       -4.6722969407    5.1028095259    1.8325714858
H       -3.4136498234    4.2860075540    3.8094324147
H       -4.3157833674    4.0306016941   -0.3776084924
H       -1.8007517419    2.4547607521    3.5822347362
H       -2.7779924773    2.1765133814   -0.6228194819
H       -0.8764304438    0.7684445325    2.4106289512
H        2.2784197843   -0.7946992873   -1.0576183884
H        1.3745092276   -2.0311728303   -1.9550315804
H        1.4047972714    0.9634441340   -3.2664340200
H       -0.2860039704    0.5490250542   -3.6444344855
H        0.9694619137   -0.6874755664   -3.7746679796
H        1.1153895000   -2.5995265907    0.4001666742
28   

C       -4.0348858628    4.2366103301    1.7342467146
C       -3.2650777559    3.8662499021    2.8366008609
C       -3.8230051592    3.6114912275    0.5046467482
C       -2.2809173833    2.8810510156    2.7043721925
C       -2.8446355265    2.6179915011    0.3764647149
C       -2.0423574250    2.2416202414    1.4715588177
C       -0.5770280419    0.3297687022    0.4469267067
C       -0.0260039589   -0.9408358290    0.8497693762
C       -0.2813660145    0.7185872075   -0.9620420450
C       -1.0286584283    1.1963826025    1.4095529631
C        1.1726971314   -1.2685987949   -1.2764568851
C        0.7238239094    0.2783511033   -3.1711800645
N        0.6703525569   -1.7375961050   -0.0111490298
N        0.4544315198   -0.1208969962   -1.7935365045
O       -0.1566162591   -1.3708550979    1.9829838288
O       -0.5707991166    1.8290843469   -1.3811723988
H       -4.7972527432    5.0010456402    1.8333975539
H       -3.4310348560    4.3401349452    3.7974529586
H       -4.4222773379    3.8893361573   -0.3548136517
H       -1.7013509410    2.6116087961    3.5801129883
H       -2.7469579139    2.1368146680   -0.5864521294
H       -0.7062540107    0.9317703198    2.4116854059
H        2.2300598213   -1.0045968904   -1.1628930253
H        1.1002486252   -2.0863994274   -2.0010219585
H        1.5518545424    0.9942125652   -3.1997122642
H       -0.1608621283    0.7412045598   -3.6206246082
H        0.9868767511   -0.5918244211   -3.7807802727
H        1.0028577611   -2.5991007296    0.4050020318
28   

C       -4.0935818691    4.1696755612    1.7688994277
C       -3.2627812157    3.8816985446    2.8524672353
C       -3.8762859101    3.5351651595    0.5444061200
C       -2.2145489518    2.9664296077    2.7079191483
C       -2.8353088187    2.6093555955    0.4051711085
C       -1.9805131175    2.3127023388    1.4830551351
C       -0.5511876252    0.4046177143    0.4365775974
C       -0.0464198164   -0.8755963673    0.8604395252
C       -0.1977732626    0.7804821995   -0.9624482624
C       -0.9062021502    1.3337567770    1.3879375061
C        1.0983787274   -1.3187495505   -1.2821784673
C        0.8526291078    0.3140380470   -3.1435929997
N        0.6082348445   -1.7201288772    0.0121416814
N        0.5173392814   -0.0877876546   -1.7813263087
O       -0.1708301791   -1.2663698859    2.0083070340
O       -0.4592354264    1.8974316898   -1.3854249494
H       -4.9052067689    4.8801252328    1.8780754286
H       -3.4317283494    4.3646855546    3.8082125055
H       -4.5168403466    3.7556509642   -0.3017889107
H       -1.5876658835    2.7566806073    3.5671807929
H       -2.7104607218    2.1233081451   -0.5536006543
H       -0.5110229621    1.1195767419    2.3760087536
H        2.1852878453   -1.1945147605   -1.2214580260
H        0.8854792679   -2.1217383044   -1.9955383575
H        1.7161261320    0.9871041486   -3.1350460327
H        0.0077255407    0.8256362865   -3.6162479261
H        1.0926865139   -0.5607589334   -3.7561532380
H        0.9254243918   -2.5741754355    0.4549047087
28   

C       -4.1588982490    4.1029957395    1.8554104683
C       -3.2548429564    3.8860484034    2.8971855104
C       -3.9649744545    3.4669098025    0.6271727235
C       -2.1580667883    3.0376695004    2.7085070208
C       -2.8761697964    2.6061193174    0.4453096029
C       -1.9552712106    2.3779487411    1.4824790095
C       -0.5755508761    0.4715813806    0.3902398747
C       -0.1313606161   -0.8168272632    0.8495337756
C       -0.1540982633    0.8131910850   -0.9990714067
C       -0.8344180784    1.4648461545    1.3182076623
C        1.0421272446   -1.3536045207   -1.2582060583
C        0.9815270120    0.2941506481   -3.1243789744
N        0.5049573318   -1.7058336970    0.0327534764
N        0.5697531443   -0.0843924940   -1.7765946201
O       -0.2761705506   -1.1662418686    2.0080548016
O       -0.4033816656    1.9219543691   -1.4514509120
H       -5.0076939373    4.7619958081    1.9991533646
H       -3.4049461344    4.3718821021    3.8545914063
H       -4.6582752452    3.6382849580   -0.1882629919
H       -1.4733474426    2.8794923942    3.5339384892
H       -2.7483318960    2.1226189104   -0.5159061950
H       -0.3524370373    1.3017210027    2.2770179693
H        2.1344442024   -1.3152511819   -1.1819149862
H        0.7768375430   -2.1429253296   -1.9692704540
H        1.8708002863    0.9312269702   -3.0804773246
H        0.1805246761    0.8362190072   -3.6378100923
H        1.2127969692   -0.5938287359   -3.7211688499
H        0.7930450479   -2.5526810195    0.5081320731
28   

C       -4.1906858811    4.0048706592    1.9648254833
C       -3.1974880082    3.8699882357    2.9379452810
C       -4.0409362070    3.3706166732    0.7289473994
C       -2.0562280468    3.1039616274    2.6740115396
C       -2.9067907876    2.5911614280    0.4731787671
C       -1.9011346043    2.4442260330    1.4419606516
C       -0.5181760663    0.5828847507    0.2702367871
C       -0.1410236079   -0.7101878223    0.7730149334
C        0.0133261744    0.8878462331   -1.0885083576
C       -0.7377236501    1.6154604011    1.1802476729
C        0.9662158400   -1.3990850029   -1.3333983867
C        1.2617667720    0.3004784619   -3.1307239469
N        0.4669321096   -1.6533104566   -0.0042446956
N        0.7137528585   -0.0592247506   -1.8269869013
O       -0.3029307244   -1.0094908045    1.9431511572
O       -0.1436420666    2.0101808885   -1.5491227243
H       -5.0737877245    4.6003223597    2.1672982167
H       -3.3127963213    4.3553946175    3.9003621225
H       -4.8026168274    3.4821272800   -0.0342051675
H       -1.3008508416    3.0066521262    3.4454312066
H       -2.7993062322    2.1102291644   -0.4928542680
H       -0.1589140297    1.5111320097    2.0924048213
H        2.0490823478   -1.5658627819   -1.3284612710
H        0.5126893519   -2.1197786284   -2.0216565655
H        2.2006098714    0.8494343820   -3.0055431343
H        0.5567433944    0.9233931137   -3.6911685632
H        1.4548739335   -0.5958610243   -3.7286652780
H        0.7399822365   -2.4817247417    0.5108587812
28   

C       -4.2208137088    3.2361059208    2.4827521804
C       -3.0658488456    3.3583721036    3.2591590350
C       -4.1702284917    2.5470212503    1.2682630706
C       -1.8624163010    2.7950930554    2.8195944800
C       -2.9688502528    1.9717163910    0.8375322850
C       -1.8000304753    2.0868046469    1.6072385305
C       -0.2945359970    0.4932011980    0.2095163405
C        0.0644168262   -0.8250724758    0.6675195982
C        0.3055234472    0.8056354534   -1.1339461989
C       -0.5629857322    1.4765270594    1.1682981049
C        0.3292154357   -1.5973704866   -1.6409925114
C        1.4605930341    0.0193150612   -3.1870123255
N        0.4236693477   -1.8037729259   -0.2168873678
N        0.6967719270   -0.2341614011   -1.9706025420
O        0.1118624221   -1.1057004997    1.8523522043
O        0.4823603632    1.9691502794   -1.4636464098
H       -5.1527813063    3.6744145389    2.8216764058
H       -3.1021806987    3.8866546442    4.2051509507
H       -5.0623104446    2.4574462276    0.6589669105
H       -0.9782926962    2.8956173834    3.4389250224
H       -2.9433345902    1.4416525216   -0.1076174750
H        0.2122993808    1.5523285089    1.9236304426
H        1.0051983562   -2.2939869430   -2.1480891499
H       -0.6926799174   -1.8014673833   -1.9786631174
H        2.5285881475   -0.1227087331   -2.9935440722
H        1.3035325204    1.0385947833   -3.5541480274
H        1.1482605703   -0.6655853175   -3.9816112638
H        0.7639810896   -2.6638485485    0.1955092084
