47

C      5.31625    0.44020    0.71015
C      8.95280   -0.31548    0.82129
C      8.95659   -1.71620    0.79836
C      7.74046    0.36615    0.76208
C      7.75946   -2.42045    0.69918
C      4.95649   -3.79083    0.99628
C      3.58269   -3.99000    0.64340
C      6.52473   -0.33794    0.67813
C      6.52064   -1.75573    0.63392
C      5.29766   -2.53923    0.54138
C      3.17717   -2.85838   -0.01482
C      0.74816    1.47363    0.51683
C      0.65361    1.06580   -0.97777
C     -1.08021   -0.07373    1.42047
C      1.34058   -0.89110    1.15275
C     -0.95573   -0.91889   -0.87775
C      0.41399    0.29879    1.45144
C      0.50352   -0.45652   -1.12870
C     -3.08567   -0.43011    0.14317
C      1.88392   -2.44716   -0.64739
N      4.38428    1.13576    0.78125
N     -1.67284   -0.08559    0.08410
N      1.51922   -1.09343   -0.28816
O      4.21609   -1.97287   -0.08388
H      9.88527    0.23745    0.88640
H      9.89711   -2.25885    0.84091
H      7.71536    1.45106    0.79405
H      7.77433   -3.50481    0.64418
H      5.59286   -4.46369    1.55582
H      2.96774   -4.85304    0.86206
H      1.76576    1.80457    0.74039
H      0.07329    2.31008    0.72613
H     -0.19276    1.56052   -1.46199
H      1.56787    1.36693   -1.49705
H     -1.21572   -1.04844    1.93278
H     -1.63719    0.66774    2.00654
H      2.32294   -0.70486    1.60232
H      0.93120   -1.79723    1.63478
H     -1.50493   -0.85510   -1.82452
H     -0.95901   -1.98898   -0.58517
H      0.62506    0.59940    2.48459
H      0.74829   -0.73203   -2.16079
H     -3.53317   -0.34293   -0.85257
H     -3.60818    0.26317    0.81100
H     -3.26841   -1.45897    0.51165
H      1.98295   -2.49637   -1.73973
H      1.13559   -3.21183   -0.35865
