38

C     -3.06669    1.68947  -10.02920
C     -4.23682    2.45519  -10.00022
C     -2.27705    1.59065   -8.88345
C     -4.61102    3.13031   -8.83616
C     -0.96673    1.64343   -4.56693
C     -2.64579    2.25678   -7.71177
C     -3.81001    3.03815   -7.69564
C     -0.10289    2.49876   -5.32133
C     -2.05418    1.44635   -5.41347
C     -0.70130    1.14140   -3.22780
C     -0.31470    0.48495   -0.47324
C     -2.48910   -0.54713   -0.69390
C     -0.98055    1.69669    0.18708
C     -3.10604    0.67764   -0.01556
C      1.22908    3.04821   -4.90953
N     -0.61379    2.79462   -6.51557
N     -1.52838    0.35847   -2.62195
N     -1.81747    2.14651   -6.56250
N     -1.24895   -0.18367   -1.39441
O     -2.17004    1.29997    0.87203
Cl    -4.26037    3.92305   -6.25822
Cl    -3.47915    0.50985   -5.21739
H     -2.77389    1.16910  -10.93634
H     -4.86153    2.53396  -10.88565
H     -1.36565    1.00079   -8.87532
H     -5.51102    3.73609   -8.80891
H      0.24466    1.47080   -2.79007
H      0.61045    0.75558   -0.98650
H     -0.05187   -0.24626    0.29771
H     -2.24501   -1.30480    0.05866
H     -3.17660   -0.97704   -1.42500
H     -0.32538    2.14244    0.94085
H     -1.21900    2.46101   -0.56731
H     -3.43193    1.39728   -0.78171
H     -3.96824    0.39955    0.59684
H      1.94280    2.24609   -4.69056
H      1.63622    3.66237   -5.71567
H      1.14390    3.67029   -4.01148
