39

C     -3.56626   -5.88328    4.60120
C      4.62370    0.84763   -0.45520
C     -2.69595   -4.82445    4.76437
C      3.57003    0.19692   -1.10209
C     -4.21157   -6.10129    3.35972
C     -1.36581   -2.02062    2.67488
C      4.43233    1.28560    0.85684
C      2.28384    0.49083    0.89208
C     -2.44565   -3.94458    3.68116
C      2.36102    0.00365   -0.42587
C     -3.08283   -4.13798    2.41584
C     -1.55738   -2.83158    3.77284
C     -3.96637   -5.24782    2.31008
C     -2.05914   -2.31476    1.47133
C     -0.18367    0.00631   -0.94129
C      0.55122   -1.83962   -0.23127
C      1.19950   -0.70045   -1.07435
C     -1.87513   -1.41149    0.26755
N      3.28284    1.11442    1.52848
N     -2.88419   -3.33662    1.33125
N     -0.51922   -0.90060    0.17790
O     -0.93680   -2.63507    4.97108
F     -4.58381   -5.46315    1.12945
H     -3.76412   -6.56114    5.42660
H      5.57440    1.01226   -0.95484
H     -2.19732   -4.65140    5.71181
H      3.68676   -0.15861   -2.12405
H     -4.89784   -6.93087    3.21859
H     -0.69175   -1.16816    2.69757
H      5.23179    1.79480    1.39305
H      1.35845    0.36483    1.45244
H     -0.18207    1.07099   -0.68350
H     -0.80903   -0.15406   -1.83369
H      0.18270   -2.66430   -0.86114
H      1.14130   -2.25073    0.59433
H      1.46162   -0.98796   -2.09434
H     -2.18343   -1.97437   -0.62901
H     -2.55428   -0.55353    0.36276
H     -0.35896   -1.85669    4.90564
