34

C     -0.22577   -2.11235    1.19625
C      0.88511   -1.23476    1.26992
C      2.37757   -5.20177   -1.52178
C     -0.11762   -3.29129    0.49310
C      2.07380   -1.54890    0.64434
C      1.19978   -4.86249   -0.88652
C      3.49081   -4.34056   -1.45948
C      1.09440   -3.64537   -0.16368
C      2.22382   -2.75990   -0.09331
C      3.43977   -3.13695   -0.76470
C      7.72610    1.74303    0.32587
C      8.67111    0.98841   -0.43627
C      7.09457   -0.59325   -0.72035
C      4.61312   -2.25422   -0.71452
C      8.05588    3.07897    0.93561
N      6.50965    1.25181    0.50591
N      8.36271   -0.17131   -0.95728
N      6.16135    0.06809   -0.01386
N      5.70615   -2.60830   -1.30950
N      6.81678   -1.81475   -1.28657
O      9.93101    1.43016   -0.65972
H     -1.15617   -1.85188    1.69406
H      0.79978   -0.30436    1.82535
H      2.45204   -6.13507   -2.07396
H     -0.96208   -3.97382    0.42883
H      2.89897   -0.85070    0.72595
H      0.33714   -5.52333   -0.93169
H      4.41525   -4.60909   -1.96030
H      4.54986   -1.31526   -0.17997
H      8.32935    3.82102    0.17411
H      7.17840    3.45096    1.46708
H      8.88201    3.00872    1.65525
H      7.59656   -2.21591   -1.79211
H     10.05382    2.29379   -0.23236
