47

C      2.92114   -4.11452   -0.63601
C      4.01067   -6.55334   -3.21150
C      4.69103   -5.73510   -4.12323
C      3.45857   -5.98540   -2.06810
C      4.82053   -4.37147   -3.88123
C      4.73609   -1.31575   -3.42159
C      4.73920   -0.10861   -2.65259
C      3.57382   -4.60350   -1.81991
C      4.26929   -3.76898   -2.73271
C      4.43263   -2.33528   -2.54825
C      4.44504   -0.46258   -1.36156
C      0.88890    1.76446    1.84731
C      1.29012    1.93471    0.35923
C      0.68675   -0.77941    2.05548
C      2.96149    0.38382    1.95085
C      0.76358   -0.46420   -0.38656
C      1.51005    0.48004    2.42704
C      1.83670    0.62541   -0.24179
C     -1.00648   -1.73271    0.62339
C      4.29010    0.30762   -0.08979
N      2.34212   -3.81576    0.33018
N     -0.06872   -0.63039    0.80593
N      2.98957    0.10436    0.51887
O      4.25913   -1.81566   -1.29160
H      3.91454   -7.62001   -3.39127
H      5.13278   -6.16568   -5.01781
H      2.92133   -6.59939   -1.35188
H      5.37701   -3.75532   -4.58052
H      4.90226   -1.40895   -4.48642
H      4.92326    0.89626   -3.00940
H      1.24191    2.62607    2.42614
H     -0.19804    1.72238    1.94582
H      0.43867    2.28066   -0.23578
H      2.07018    2.70048    0.26657
H      1.34468   -1.66467    2.03770
H     -0.05830   -0.94544    2.84213
H      3.47728    1.33055    2.20642
H      3.49045   -0.42256    2.47614
H      0.09254   -0.19417   -1.21351
H      1.28127   -1.39747   -0.66318
H      1.53016    0.54980    3.52049
H      2.19057    0.83137   -1.25757
H     -1.60810   -1.55661   -0.27554
H     -1.68811   -1.78515    1.47957
H     -0.50644   -2.71181    0.51704
H      5.04775   -0.03715    0.62509
H      4.52289    1.36779   -0.30913
