43

C     -2.25651   -2.15807    7.53318
C     -1.51564   -0.99502    7.82670
C     -2.84496   -2.32240    6.27937
C     -1.33211    0.01715    6.88158
C     -2.67691   -1.30542    5.33676
C     -1.91588   -0.16909    5.62539
C     -3.16570   -1.17448    3.95649
C     -1.12802   -0.48345    1.76317
C     -0.13811    1.77496   -0.70530
C     -1.16670    0.65908   -0.48292
C      0.59580   -0.93526    0.08450
C      1.69840    0.12929   -0.06866
C      1.24193    1.21298   -1.08452
C      2.11661    0.68682    1.30057
C      2.26189    2.34463   -1.24009
C     -2.40085    0.30383    2.15254
N     -1.83953    0.67492    4.49702
N     -2.74488    0.10741    3.54267
N     -0.66398   -0.30983    0.48989
O     -3.80261   -1.94710    3.25035
O     -0.59621   -1.23706    2.57538
O      1.03452    0.58822   -2.37379
H     -2.36630   -2.92695    8.29268
H     -1.06597   -0.88650    8.81041
H     -3.42441   -3.20659    6.02944
H     -0.74315    0.90104    7.11158
H     -0.47768    2.43565   -1.51013
H     -0.04548    2.37753    0.20432
H     -2.12061    1.07265   -0.15868
H     -1.34522    0.13615   -1.42847
H      0.43280   -1.44748   -0.86924
H      0.86489   -1.67185    0.84060
H      2.57425   -0.37114   -0.50873
H      1.29893    1.22606    1.78776
H      2.97023    1.36500    1.21914
H      2.39867   -0.13172    1.96867
H      3.25669    1.94461   -1.47358
H      2.34955    2.94701   -0.33204
H      1.95558    3.00027   -2.06069
H     -3.25061   -0.04970    1.56317
H     -2.27997    1.37417    1.96567
H     -2.13828    1.62774    4.70836
H      1.88316    0.21651   -2.66386
