47

C      2.11819   -3.55343   -0.74449
C      4.24613   -6.58469   -0.98539
C      5.46362   -6.13148   -0.46009
C      3.17530   -5.70185   -1.08101
C      5.60245   -4.80967   -0.04909
C      5.65935   -1.96661    1.18261
C      5.33723   -0.57445    1.26604
C      3.30170   -4.36501   -0.65558
C      4.53412   -3.89480   -0.13287
C      4.74099   -2.53035    0.32659
C      4.25220   -0.37229    0.45385
C     -0.10487    2.07166    1.86392
C      0.55576    2.62536    0.57379
C     -0.65472   -0.33366    1.18750
C      1.73021    0.37862    1.78162
C     -0.04853    0.66934   -0.97409
C      0.23924    0.58333    2.05679
C      1.08046    1.49447   -0.33237
C     -2.12837   -0.50191   -0.71454
C      3.43296    0.83024    0.10500
N      1.10298   -2.98875   -0.83662
N     -1.12062    0.31264   -0.04389
N      2.02566    0.60791    0.36951
O      3.88629   -1.55699   -0.12243
H      4.13589   -7.61315   -1.31631
H      6.31023   -6.80855   -0.38479
H      2.22067   -6.03394   -1.47724
H      6.56062   -4.46348    0.32579
H      6.44325   -2.48658    1.71690
H      5.83291    0.17951    1.86318
H      0.25291    2.63558    2.73339
H     -1.18961    2.19193    1.81654
H     -0.15148    3.24374    0.01166
H      1.40334    3.27110    0.83392
H     -0.12904   -1.28194    0.98338
H     -1.55528   -0.57981    1.76226
H      2.30596    1.06586    2.43319
H      2.03506   -0.64076    2.05132
H     -0.50577    1.26451   -1.77612
H      0.41463   -0.22006   -1.43317
H      0.06813    0.30744    3.10361
H      1.62983    1.94584   -1.16549
H     -2.51377    0.03690   -1.58744
H     -2.96779   -0.68549   -0.03475
H     -1.73796   -1.47690   -1.05614
H      3.86412    1.68547    0.66317
H      3.55651    1.04445   -0.96300
