43

C     -6.28338   -2.50677    2.71352
C     -5.54823   -3.61754    3.17844
C     -5.68907   -1.24820    2.63437
C     -4.20946   -3.50678    3.55873
C     -4.35376   -1.12653    3.03000
C     -3.62408   -2.24014    3.46548
C     -3.45987    0.04064    3.07859
C      0.05082   -0.52142    2.70748
C     -0.58868    0.98547   -0.48075
C     -1.19983    0.08901    0.60259
C      0.76868   -1.37468    0.53527
C      1.47826   -0.48508   -0.49920
C      0.41785    0.24228   -1.36933
C      2.48657    0.45154    0.18269
C      1.04339    1.19239   -2.39447
C     -0.99130    0.22195    3.56297
N     -2.29207   -1.87112    3.72215
N     -2.27211   -0.45588    3.60661
N     -0.14380   -0.58320    1.36330
O     -3.63178    1.20648    2.71763
O      1.00774   -1.05194    3.28201
O     -0.37047   -0.74986   -2.06917
H     -7.32016   -2.63940    2.41807
H     -6.03347   -4.58844    3.23460
H     -6.23564   -0.37678    2.28541
H     -3.64673   -4.37163    3.89919
H     -1.39116    1.37980   -1.11243
H     -0.09104    1.83877   -0.00905
H     -1.82917    0.69056    1.25329
H     -1.83504   -0.67282    0.13665
H      0.18224   -2.14534    0.02307
H      1.48841   -1.85659    1.19563
H      2.03949   -1.15392   -1.16904
H      1.99138    1.15650    0.85684
H      3.06543    1.02649   -0.54499
H      3.18977   -0.13003    0.78626
H      1.79578    0.67281   -3.00167
H      1.53107    2.04748   -1.91902
H      0.26417    1.56954   -3.06346
H     -1.20057    1.23670    3.21655
H     -0.55792    0.28061    4.56492
H     -1.92115   -2.17045    4.62381
H      0.22322   -1.23191   -2.66724
