43

C     -1.76297   -3.56514    4.82256
C     -1.58512   -4.45735    3.74348
C     -2.24159   -2.27482    4.60095
C     -1.89137   -4.09405    2.43117
C     -2.53981   -1.90158    3.28691
C     -2.38503   -2.80189    2.22369
C     -2.99915   -0.62338    2.72154
C     -2.81088    0.27458   -0.84361
C      0.76842    0.27444   -1.32818
C     -0.62213    0.76848   -1.77704
C     -0.93372    1.06395    0.63844
C      0.06903   -0.03207    1.07609
C      0.67971   -0.73132   -0.16885
C      1.09304    0.59137    2.03130
C      2.03236   -1.38887    0.10655
C     -3.68865    0.00994    0.38866
N     -2.78959   -2.21161    1.01358
N     -3.06982   -0.86245    1.35813
N     -1.55575    0.77408   -0.64803
O     -3.25748    0.45773    3.25848
O     -3.25547    0.01833   -1.96556
O     -0.26804   -1.78653   -0.51371
H     -1.52106   -3.89137    5.83009
H     -1.20510   -5.45670    3.93968
H     -2.37692   -1.56625    5.41323
H     -1.76012   -4.78954    1.60708
H      1.28430   -0.17461   -2.18551
H      1.39496    1.11236   -1.00245
H     -0.54599    1.77383   -2.21085
H     -1.04857    0.11958   -2.54140
H     -1.68275    1.23264    1.41037
H     -0.39369    2.01379    0.52532
H     -0.46687   -0.80944    1.62514
H      1.73560    1.31904    1.52135
H      1.73229   -0.16087    2.49926
H      0.56852    1.12114    2.83334
H      1.95565   -2.08448    0.94719
H      2.80754   -0.65128    0.33102
H      2.35916   -1.95501   -0.77373
H     -4.61455   -0.43057    0.01067
H     -3.92465    0.93418    0.92367
H     -2.05191   -2.23163    0.29885
H      0.01288   -2.18503   -1.35382
