23

C      3.29513   -4.72946    2.96893
C      2.06511   -2.09483   -0.29033
C      1.06426   -1.25407    0.18354
C      2.21965   -1.15484    2.32774
C      3.24227   -1.99053    1.86009
C      3.14419   -2.44133    0.52980
C      1.16882   -0.79678    1.49371
C      3.72311   -3.56921    3.75654
C      4.29781   -2.43418    2.86881
N      2.95481   -5.62817    2.31469
N      4.62959   -1.31117    3.76279
N      4.17213   -3.28769   -0.10944
O      5.35050   -3.15262    0.24753
O      3.80051   -4.05409   -0.99937
F      0.20853    0.02137    1.97727
H      2.02862   -2.48540   -1.30032
H      0.22519   -0.95777   -0.43720
H      2.25602   -0.78445    3.34659
H      2.87129   -3.19082    4.32965
H      4.48657   -3.89556    4.47154
H      5.16385   -2.82610    2.33780
H      5.03345   -0.55515    3.21057
H      5.35656   -1.60613    4.41416
