27   

C       -4.3482427934    0.0095630369    1.5992892857
C       -3.0710161919   -1.4971825999    0.2018905560
C       -3.1782156604    0.3869976870    2.2624186379
C       -1.8982541392   -1.0996932391    0.8559290665
C       -4.3105141943   -0.9378493902    0.5599144418
C       -1.9397887595   -0.1620455140    1.9029948709
C       -0.6837358115    1.5177428801    3.9256110307
C        0.8138464905    0.7248316581    1.6896275459
C       -5.5347088794   -1.3838027287   -0.1859329166
C       -6.8028352728   -0.5595854737   -0.0601155550
C       -0.1345391334   -1.2119452279    3.5232607416
O       -5.5037867539   -2.3360929187   -0.9557440856
S       -0.4131290595    0.3901059021    2.7444159020
H       -5.2817907002    0.4643287647    1.9103219247
H       -3.0106907439   -2.2291510703   -0.5979714134
H       -3.2326049275    1.1275679116    3.0550785057
H       -0.9491336233   -1.5214793869    0.5402318911
H       -0.0837127328    2.4173459022    3.9547507680
H       -1.4399742989    1.3560632841    4.6813749712
H        1.4361024299    1.5943879889    1.8548527691
H        0.9855498585    0.1015742741    0.8234172492
H       -6.5800508506    0.5001902865   -0.2099608138
H       -7.2475212991   -0.7078281622    0.9272881303
H       -7.5235200630   -0.8733652955   -0.8209049029
H        0.7450676383   -1.1348889519    4.1653845498
H       -1.0052314198   -1.4762985507    4.1261289414
H        0.0395688499   -1.9684648480    2.7571594037
27   

C       -4.3808273364   -0.0640300858    1.6964847436
C       -3.1022815143   -1.5161853936    0.2418563896
C       -3.2038904936    0.3325469232    2.3361335540
C       -1.9233059978   -1.0994845742    0.8722229697
C       -4.3439849782   -0.9957302678    0.6453361776
C       -1.9614797473   -0.1795896400    1.9356667334
C       -0.6945173619    1.5012314036    3.9502125334
C        0.7606794420    0.7825389294    1.6619574283
C       -5.5745229927   -1.4432099856   -0.0897748728
C       -6.7410593191   -0.4778210177   -0.1889649791
C       -0.0857321676   -1.2072808529    3.4894057085
O       -5.5854882689   -2.4799843454   -0.7416896655
S       -0.4270723960    0.3988695919    2.7447553363
H       -5.3214553780    0.3592709021    2.0307740481
H       -3.0482213796   -2.2319734752   -0.5729586549
H       -3.2560686233    1.0595216260    3.1414181393
H       -0.9723048747   -1.4911738796    0.5249911462
H       -0.1184327524    2.4164357558    3.9764959652
H       -1.4243226756    1.3076171999    4.7242398604
H        1.3633552921    1.6665080957    1.8232545403
H        0.9256223149    0.1765409692    0.7822966546
H       -6.3761700427    0.5378700252   -0.3639255429
H       -7.3246152038   -0.5036709964    0.7347495911
H       -7.3874941244   -0.7640495920   -1.0236528763
H        0.8090137668   -1.1172214604    4.1085104997
H       -0.9323262530   -1.5038920135    4.1112939196
H        0.0866317694   -1.9469091744    2.7065929239
27   

C       -4.3875705592   -0.1039793849    1.7675959168
C       -3.0968796649   -1.5019768800    0.2700915651
C       -3.2110747549    0.3075974136    2.3988530907
C       -1.9187346522   -1.0702861090    0.8917521295
C       -4.3422949139   -1.0194268138    0.7050634066
C       -1.9629969594   -0.1708119818    1.9728615482
C       -0.7045157314    1.5014210258    3.9997287052
C        0.7343917932    0.8523927420    1.6805608522
C       -5.5737723868   -1.4689099375   -0.0301289147
C       -6.6083132631   -0.4171163194   -0.3813399113
C       -0.0461271558   -1.1859746207    3.4840645754
O       -5.6368975473   -2.5813723855   -0.5377579517
S       -0.4303256449    0.4254122359    2.7722532961
H       -5.3363730877    0.2911919513    2.1136796129
H       -3.0431784021   -2.2013588460   -0.5588133011
H       -3.2681356587    1.0197354266    3.2169557371
H       -0.9640581206   -1.4339505622    0.5246905307
H       -0.1476170695    2.4281529128    4.0340183042
H       -1.4192566088    1.2790671312    4.7800779153
H        1.3202314668    1.7463154926    1.8488667200
H        0.9008827518    0.2643873445    0.7890747753
H       -6.1139471441    0.5193757629   -0.6533955560
H       -7.2679536339   -0.2450669237    0.4727296735
H       -7.2084792389   -0.7562414297   -1.2305460866
H        0.8551622331   -1.0883295970    4.0924369174
H       -0.8777949228   -1.5105675217    4.1121089830
H        0.1301759891   -1.9084410126    2.6862411242
27   

C       -4.4124576209   -0.1441429100    1.8727962096
C       -3.1494055623   -1.4691470829    0.2894700850
C       -3.2230478670    0.2745104786    2.4742021728
C       -1.9581641692   -1.0311688218    0.8814500352
C       -4.3862697554   -1.0286118448    0.7852454381
C       -1.9816708164   -0.1653765636    1.9906283201
C       -0.6847396229    1.4779882018    4.0170091722
C        0.6901171250    0.9055654095    1.6391529456
C       -5.6419919912   -1.4758773783    0.0858991540
C       -6.5306625868   -0.3907090430   -0.4878215952
C       -0.0050749808   -1.1863945902    3.4161701192
O       -5.7961826326   -2.6422419806   -0.2513944447
S       -0.4336753245    0.4357144142    2.7559540551
H       -5.3583801328    0.2187175001    2.2601197763
H       -3.1155636232   -2.1440438369   -0.5603059606
H       -3.2655729021    0.9610741987    3.3147237089
H       -1.0100189746   -1.3641343969    0.4708856534
H       -0.1404646468    2.4119672250    4.0566240606
H       -1.3713879567    1.2263181429    4.8135346575
H        1.2678735245    1.8041315409    1.8106516828
H        0.8381064701    0.3406092323    0.7297154140
H       -5.9178108416    0.4120957153   -0.9064690372
H       -7.1726243176    0.0169459759    0.2968146629
H       -7.1586414559   -0.8051403771   -1.2815995301
H        0.9138615710   -1.0904913968    3.9978242481
H       -0.8117406401   -1.5375394537    4.0623280915
H        0.1548886195   -1.8872637432    2.5959443219
27   

C       -4.4162454095   -0.1440534195    1.9956559498
C       -3.2100508022   -1.4342683336    0.3439659231
C       -3.2076248183    0.2645306700    2.5641621163
C       -1.9986351548   -1.0070456659    0.9026275232
C       -4.4280687429   -1.0032668278    0.8886396229
C       -1.9836662203   -0.1632874976    2.0288349334
C       -0.6196547311    1.4382283503    4.0442773584
C        0.6720139294    0.9209767847    1.6078990779
C       -5.7204695383   -1.4390049440    0.2419886151
C       -6.4470653211   -0.3930635208   -0.5772041361
C        0.0428623003   -1.2112173978    3.3622470684
O       -6.0147080128   -2.6225847453    0.1468233261
S       -0.4108358497    0.4239834021    2.7530683983
H       -5.3498834674    0.2059155127    2.4229352595
H       -3.2063698418   -2.0949272367   -0.5172212972
H       -3.2221996479    0.9327878366    3.4202451272
H       -1.0650412014   -1.3318768964    0.4539881004
H       -0.0768163636    2.3729823106    4.0849242212
H       -1.2771632435    1.1671712272    4.8588670394
H        1.2530721632    1.8176201368    1.7783558956
H        0.7895190743    0.3759287124    0.6820452338
H       -5.7264885703    0.2230139440   -1.1217717584
H       -7.0406522005    0.2457401692    0.0813447213
H       -7.1116887968   -0.8792976509   -1.2969254940
H        0.9806220878   -1.1257401011    3.9147545656
H       -0.7409373013   -1.5787172328    4.0272213241
H        0.1765008016   -1.8933719480    2.5218132481
27   

C       -4.4218069814   -0.1299594601    2.0714732317
C       -3.2555117368   -1.3273542539    0.3272788027
C       -3.2015280696    0.2527985970    2.6321866631
C       -2.0313406050   -0.9274020123    0.8792828535
C       -4.4606999716   -0.9138963362    0.9108675281
C       -1.9902491835   -0.1401259090    2.0447421287
C       -0.5783590324    1.3797826883    4.0917512171
C        0.6633351103    0.9460464505    1.6129445274
C       -5.7796197262   -1.3516149503    0.3156984732
C       -6.3687779973   -0.4433651550   -0.7417305889
C        0.0540109127   -1.2454056205    3.2988716726
O       -6.3777741182   -2.3378536450    0.7217133902
S       -0.4011806792    0.4137088826    2.7596948396
H       -5.3476876699    0.1801806587    2.5446308901
H       -3.2667644842   -1.9500149688   -0.5611267122
H       -3.1983905729    0.8705421609    3.5254639453
H       -1.1074914063   -1.2306380633    0.3966046664
H       -0.0281056583    2.3087562476    4.1572575293
H       -1.2229048719    1.0830124222    4.9077492318
H        1.2535618467    1.8321512052    1.8056621364
H        0.7602181148    0.4351470738    0.6655469832
H       -5.7593963982   -0.4869660009   -1.6480296093
H       -6.3947302936    0.5864346389   -0.3757421742
H       -7.3876047733   -0.7618827133   -0.9800658966
H        1.0031190698   -1.1858011941    3.8351609421
H       -0.7187512082   -1.6325473574    3.9656742683
H        0.1660690973   -1.8967398071    2.4312995924
27   

C       -4.4381840635   -0.1044272789    2.1163042431
C       -3.2957234790   -1.2187368276    0.3057521522
C       -3.2118800503    0.2650098585    2.6719509992
C       -2.0647071027   -0.8327949548    0.8531126750
C       -4.4952186106   -0.8308238447    0.9190062281
C       -2.0084843158   -0.0931411497    2.0483278850
C       -0.5688464927    1.3602509258    4.1262905447
C        0.6429074511    1.0032942296    1.6199714328
C       -5.8240149354   -1.2863909270    0.3672960829
C       -6.3018510717   -0.6052973810   -0.8974944316
C        0.0479126407   -1.2375325534    3.2424054637
O       -6.5890051220   -1.9668718250    1.0367805304
S       -0.4109104357    0.4383316633    2.7610670133
H       -5.3590100166    0.1686393561    2.6218694411
H       -3.3141639135   -1.8101208515   -0.6034180234
H       -3.1990291226    0.8418352161    3.5920557994
H       -1.1467803503   -1.1120610447    0.3452938904
H       -0.0126384419    2.2835116342    4.2170122425
H       -1.2071692668    1.0404293309    4.9384706987
H        1.2400489289    1.8794960348    1.8353431813
H        0.7260718238    0.5240406535    0.6549389069
H       -5.8036624095   -1.0440864230   -1.7654165794
H       -6.0749166384    0.4633141980   -0.8545393704
H       -7.3828195923   -0.7332303619   -1.0039119808
H        1.0038133112   -1.1961553341    3.7682497767
H       -0.7170570454   -1.6439617162    3.9067475353
H        0.1475041893   -1.8616313875    2.3535725474
27   

C       -4.4480313474   -0.0620225064    2.1443859728
C       -3.3335113577   -1.1196901758    0.2851788194
C       -3.2141372563    0.2880606806    2.6950249215
C       -2.0943823935   -0.7526114426    0.8277437949
C       -4.5260980413   -0.7493738575    0.9242020106
C       -2.0202011801   -0.0515505360    2.0446662427
C       -0.5494909601    1.3308137942    4.1502097001
C        0.6273922437    1.0554959036    1.6170612179
C       -5.8642697420   -1.1891262629    0.3924812833
C       -6.2258831995   -0.7560313169   -1.0135567274
C        0.0510713577   -1.2359085715    3.1728472763
O       -6.7240954976   -1.6373100331    1.1391853284
S       -0.4124949785    0.4550808380    2.7527487250
H       -5.3609142261    0.1964704064    2.6721076571
H       -3.3612015890   -1.6831869485   -0.6411453029
H       -3.1886825645    0.8352882220    3.6327871555
H       -1.1837620854   -1.0169434645    0.2991994888
H        0.0111692239    2.2486790631    4.2650042899
H       -1.1788758478    0.9860184610    4.9591527782
H        1.2302707346    1.9221846029    1.8538968891
H        0.6950468289    0.6096361753    0.6349769410
H       -5.7534086547   -1.4207890393   -1.7406723995
H       -5.8869624322    0.2687970390   -1.1871281638
H       -7.3106070086   -0.7959519411   -1.1477622947
H        1.0142876321   -1.2121483169    3.6863095147
H       -0.7048791922   -1.6630514211    3.8345121834
H        0.1375950493   -1.8308812893    2.2629545879
27   

C       -4.4334811206   -0.0575020993    2.2242606042
C       -3.3602632500   -1.0355993572    0.3005023671
C       -3.1888903652    0.2789027878    2.7582882375
C       -2.1101696544   -0.6824116016    0.8274366715
C       -4.5415354679   -0.7020477168    0.9814922049
C       -2.0096337531   -0.0290589854    2.0682189925
C       -0.4957499618    1.2915107171    4.1834983566
C        0.6289612688    1.0926854373    1.6192391491
C       -5.8945311045   -1.1144417613    0.4730791262
C       -6.1818128733   -0.9302841964   -1.0044203437
C        0.0832442327   -1.2438777043    3.1171422923
O       -6.8095677531   -1.3682994000    1.2457741656
S       -0.3880565525    0.4588057803    2.7574744975
H       -5.3327792583    0.1815838218    2.7838617268
H       -3.4017450518   -1.5611554340   -0.6471805192
H       -3.1444449265    0.7919698345    3.7144684224
H       -1.2111265076   -0.9198519966    0.2672268712
H        0.0680069906    2.2052722032    4.3147094994
H       -1.1092225215    0.9229385103    4.9941704585
H        1.2371642742    1.9517841875    1.8697526964
H        0.6764712034    0.6765981408    0.6230350655
H       -5.7837218918   -1.7768033791   -1.5692090552
H       -5.7225341973   -0.0051802700   -1.3630530154
H       -7.2617695061   -0.8716744483   -1.1676419291
H        1.0568287286   -1.2354155040    3.6111535766
H       -0.6591387867   -1.6905812320    3.7812574563
H        0.1503863107   -1.8112205015    2.1881615541
27   

C       -4.2216338131    0.7045647089    1.5244519337
C       -3.6042148101   -1.5195377934    0.8303487125
C       -2.9480646298    0.9003775249    2.0600074190
C       -2.3187746256   -1.3163980344    1.3516330355
C       -4.5683908196   -0.5000482721    0.8896741957
C       -1.9788228587   -0.1072165922    1.9824618002
C       -0.0874269649    1.6927877301    3.2841719026
C        0.8914035757   -0.3520093631    1.6291073394
C       -5.9662549242   -0.6944620598    0.3764169724
C       -6.1806562670   -1.6567428589   -0.7774529522
C       -0.5191330100   -0.9913355757    3.9953078176
O       -6.8858795757    0.0222610796    0.7505044009
S       -0.2989622359    0.1816275091    2.6438648143
H       -4.9553339969    1.5011939687    1.6035441873
H       -3.8325591763   -2.4753712010    0.3723528758
H       -2.7119328579    1.8507655033    2.5296564902
H       -1.5794404301   -2.1065169700    1.2644817708
H        0.7842756160    2.2729510499    3.0129770575
H       -0.8019463813    2.1008970338    3.9858178559
H        1.7821874662    0.2470742579    1.4936872962
H        0.7807020787   -1.2765573746    1.0806679012
H       -6.2185452055   -2.6831241050   -0.4039114295
H       -5.3703617835   -1.5600578042   -1.5050807456
H       -7.1261119547   -1.4279166430   -1.2777513000
H        0.3794979202   -0.9758198312    4.6151665498
H       -1.3812021940   -0.6927030790    4.5947545373
H       -0.6667407275   -1.9938919705    3.5922856420
27   

C       -4.2140608899    0.7387815021    1.5172961916
C       -3.5870721371   -1.4616152696    0.7584611866
C       -2.9455750961    0.9197274544    2.0695279916
C       -2.3065550460   -1.2719376027    1.2969892987
C       -4.5563186571   -0.4484044176    0.8468584952
C       -1.9743561425   -0.0834913551    1.9694258504
C       -0.0977098168    1.6763230472    3.3458966375
C        0.8995082304   -0.3082255160    1.6295156657
C       -5.9440993839   -0.6186593543    0.2998003450
C       -6.2119255793   -1.7638552265   -0.6597871918
C       -0.5264897534   -1.0312604481    3.9615433254
O       -6.8295199637    0.1917225012    0.5426073960
S       -0.3001882542    0.1875941874    2.6524069567
H       -4.9463082762    1.5352134182    1.6107967917
H       -3.7985321643   -2.4035655030    0.2657606876
H       -2.7143240579    1.8563932408    2.5683037736
H       -1.5638268725   -2.0562736173    1.1888408384
H        0.7749062905    2.2672356296    3.1022241296
H       -0.8193830935    2.0588727558    4.0545778842
H        1.7899807997    0.2969774838    1.5221189094
H        0.7951380023   -1.2131629748    1.0481138491
H       -6.2148468793   -2.7127945317   -0.1173962675
H       -5.4496538557   -1.7862965909   -1.4431371146
H       -7.1890922259   -1.6270013106   -1.1321164364
H        0.3675535111   -1.0341097083    4.5881819726
H       -1.3938605896   -0.7556718399    4.5643488457
H       -0.6678250848   -2.0199685958    3.5235898694
27   

C       -4.2221695397    0.7695378525    1.4980511291
C       -3.5737315108   -1.4015995069    0.6760367570
C       -2.9613108786    0.9394712658    2.0708922882
C       -2.3009253177   -1.2223574089    1.2361144898
C       -4.5521734655   -0.3994649591    0.7899398255
C       -1.9833866411   -0.0547700750    1.9505198003
C       -0.1275184657    1.6757985955    3.3911397138
C        0.8948110606   -0.2586017715    1.6326739312
C       -5.9256826855   -0.5466895307    0.2006526628
C       -6.2678760456   -1.8241180250   -0.5443273111
C       -0.5508314789   -1.0488983274    3.9303062803
O       -6.7691633997    0.3332911131    0.3185545908
S       -0.3169500298    0.2052308062    2.6564487247
H       -4.9572179859    1.5618968950    1.6034472892
H       -3.7665863624   -2.3246797241    0.1420827571
H       -2.7403098687    1.8621953342    2.5994058171
H       -1.5511717351   -1.9970265463    1.1084179991
H        0.7448921343    2.2763903916    3.1715003614
H       -0.8576681393    2.0369160742    4.1023411072
H        1.7835420547    0.3530008471    1.5498281749
H        0.8003350961   -1.1483687998    1.0266897100
H       -6.1708774062   -2.6853655252    0.1217809293
H       -5.6071015799   -1.9439008371   -1.4069094107
H       -7.3006188806   -1.7758220780   -0.9018778612
H        0.3377556020   -1.0659446285    4.5644375404
H       -1.4242771773   -0.7920288454    4.5325740534
H       -0.6852847111   -2.0258004196    3.4645543907
27   

C       -4.1911900072    0.7779267015    1.4568358438
C       -3.5194672300   -1.3742824164    0.6032284418
C       -2.9428058975    0.9388790833    2.0588591660
C       -2.2586034216   -1.2034484966    1.1921546154
C       -4.5042528527   -0.3794008216    0.7230724694
C       -1.9596510814   -0.0503932674    1.9379435814
C       -0.1440820266    1.6508982341    3.4619668764
C        0.9249776140   -0.2172728178    1.6606321897
C       -5.8567386907   -0.5116397673    0.0845874935
C       -6.2946459247   -1.8770409638   -0.4136132894
C       -0.5480385194   -1.0931774506    3.9091990245
O       -6.6435662283    0.4262888389    0.0575029309
S       -0.3073289574    0.2023519720    2.6788380422
H       -4.9292671355    1.5680116629    1.5580529377
H       -3.6992368583   -2.2806132456    0.0366168504
H       -2.7342716616    1.8521198797    2.6085325561
H       -1.5026704915   -1.9712597826    1.0596577076
H        0.7256949111    2.2662892879    3.2752876509
H       -0.8893236312    1.9828263211    4.1717392654
H        1.8089176036    0.4048373050    1.6115446491
H        0.8481265657   -1.0873743505    1.0243386532
H       -6.1083760767   -2.6363321725    0.3504460535
H       -5.7537683076   -2.1310370742   -1.3288981357
H       -7.3663272172   -1.8623081082   -0.6326192623
H        0.3301216516   -1.1200933375    4.5573550104
H       -1.4342055907   -0.8646104607    4.5042107752
H       -0.6632929266   -2.0565935051    3.4113572794
27   

C       -4.2158032771    0.7548845935    1.4525684585
C       -3.5019315319   -1.3574016490    0.5359401149
C       -2.9774945338    0.9122973626    2.0764382646
C       -2.2512601029   -1.1902764680    1.1468489128
C       -4.5035223185   -0.3835481669    0.6811245663
C       -1.9789008627   -0.0593426021    1.9358816973
C       -0.2058087745    1.6155307124    3.5379036007
C        0.9115913933   -0.1767291184    1.6893595120
C       -5.8368665386   -0.5055728006    0.0008454661
C       -6.3846560537   -1.8965271660   -0.2626681008
C       -0.5756223660   -1.1467780441    3.8886535090
O       -6.5558025932    0.4714076146   -0.1657901813
S       -0.3391726055    0.1920326884    2.7047544585
H       -4.9654444490    1.5326321660    1.5636683574
H       -3.6689218605   -2.2406505764   -0.0703472437
H       -2.7878358799    1.8104303293    2.6569699960
H       -1.4821854622   -1.9414865038    0.9961027624
H        0.6580547812    2.2480118429    3.3836261349
H       -0.9648448602    1.9140607083    4.2478612729
H        1.7877282196    0.4580180446    1.6730787628
H        0.8544742999   -1.0254084967    1.0227642456
H       -6.1614341333   -2.5567484922    0.5796076927
H       -5.9421070728   -2.3031291438   -1.1755554245
H       -7.4702189446   -1.8478004882   -0.3881411966
H        0.2954523350   -1.1831747415    4.5458446522
H       -1.4716019387   -0.9502016218    4.4803558545
H       -0.6716162619   -2.0945561016    3.3577930957
27   

C       -4.2040443762    0.7715040954    1.4036706443
C       -3.4455602006   -1.3090920752    0.4516645659
C       -2.9792891838    0.9299350469    2.0538987081
C       -2.2080268925   -1.1409135869    1.0882429600
C       -4.4628448900   -0.3540081309    0.6051976206
C       -1.9653750779   -0.0256486261    1.9091492014
C       -0.2484370321    1.6282069002    3.5923704005
C        0.9305661629   -0.0807650308    1.7040709600
C       -5.7763609643   -0.4697080041   -0.1167952431
C       -6.4578904304   -1.8245601312   -0.1369137747
C       -0.5686666019   -1.1500628089    3.8476746921
O       -6.3977306838    0.5277959113   -0.4593354898
S       -0.3422712704    0.2307911591    2.7110299238
H       -4.9653598697    1.5381283994    1.5120723112
H       -3.5972715631   -2.1759741521   -0.1820433858
H       -2.8108318350    1.8176179624    2.6566435535
H       -1.4259583161   -1.8773403660    0.9316321239
H        0.6060136939    2.2807540911    3.4731947911
H       -1.0243069084    1.8896452132    4.2987377155
H        1.7952769489    0.5693766195    1.7234324135
H        0.8984777626   -0.9063033593    1.0073847101
H       -6.3134579371   -2.3313099151    0.8209276865
H       -6.0414517426   -2.4380182186   -0.9396323903
H       -7.5306683807   -1.6975362596   -0.3084500505
H        0.2935768293   -1.1904332541    4.5161936563
H       -1.4767388930   -0.9904393261    4.4319684289
H       -0.6375950709   -2.0819286359    3.2853959082
27   

C       -4.1849183260    0.7088490934    1.3707622307
C       -3.3570585118   -1.3266086806    0.3753639737
C       -2.9762019272    0.8780324438    2.0482838365
C       -2.1359379074   -1.1468191079    1.0395744724
C       -4.3983977144   -0.4013977464    0.5408214817
C       -1.9367082162   -0.0496616579    1.8966707103
C       -0.2924423500    1.5935735803    3.6617051327
C        0.9641303878   -0.0292272877    1.7475398594
C       -5.6904743889   -0.5369377405   -0.2206793346
C       -6.4898002691   -1.8063875157   -0.0059985335
C       -0.5487224823   -1.1971450610    3.8279526757
O       -6.2126255297    0.4327373912   -0.7539253393
S       -0.3355678495    0.2220326135    2.7368242693
H       -4.9672573929    1.4536814648    1.4796671571
H       -3.4805929327   -2.1761709137   -0.2875248125
H       -2.8393322969    1.7528326728    2.6772877529
H       -1.3328808534   -1.8588194296    0.8763675038
H        0.5491948177    2.2682524825    3.5806491054
H       -1.0887312553    1.8160195004    4.3586104100
H        1.8134274770    0.6386979223    1.8053633836
H        0.9647348742   -0.8325833016    1.0246460823
H       -6.4254083969   -2.1164538663    1.0403272084
H       -6.0994477342   -2.6029939850   -0.6439392395
H       -7.5397524943   -1.6317859881   -0.2578228914
H        0.3016485999   -1.2364100052    4.5115758116
H       -1.4712414034   -1.0772010597    4.3989182588
H       -0.5837834331   -2.1132575186    3.2373480120
27   

C       -4.1889377084    0.6730720453    1.3286179803
C       -3.3027936965   -1.3228581968    0.3001728804
C       -2.9933358114    0.8519801356    2.0272101064
C       -2.0950316083   -1.1320470526    0.9850631075
C       -4.3627136529   -0.4216210022    0.4710180611
C       -1.9318097816   -0.0502487752    1.8694917255
C       -0.3537703065    1.5774737008    3.7079822085
C        0.9695467419    0.0524982153    1.7590730114
C       -5.6446736539   -0.5849912032   -0.3096826779
C       -6.5731713647   -1.6943565590    0.1375361557
C       -0.5342688435   -1.2223752171    3.7814002241
O       -6.0404372258    0.2880238102   -1.0693279207
S       -0.3486576394    0.2364217607    2.7384132855
H       -4.9893877218    1.3972473631    1.4424021520
H       -3.4031137419   -2.1596712677   -0.3827574054
H       -2.8833087177    1.7145162549    2.6780664178
H       -1.2748553996   -1.8231241572    0.8171855282
H        0.4711115895    2.2756802739    3.6610590827
H       -1.1648944171    1.7562562455    4.4003090012
H        1.8007655921    0.7390462770    1.8511406716
H        0.9992665881   -0.7246661791    1.0086222904
H       -6.5846938665   -1.7548876631    1.2289962848
H       -6.2338748169   -2.6486467140   -0.2726144142
H       -7.5887397183   -1.4950257574   -0.2162173988
H        0.3085281206   -1.2591420374    4.4744925248
H       -1.4667296832   -1.1471152385    4.3437323605
H       -0.5352450530   -2.1199305849    3.1619722072
27   

C       -4.2082853980    0.6010466389    1.2988819926
C       -3.2460152111   -1.3239299654    0.2012285185
C       -3.0242274918    0.7910892954    2.0146399248
C       -2.0513021955   -1.1209179941    0.9046747897
C       -4.3294766277   -0.4541858033    0.3850354507
C       -1.9309735261   -0.0676064841    1.8299022725
C       -0.4193107694    1.5464610620    3.7343621397
C        0.9679328315    0.1183140355    1.7565826311
C       -5.6149615507   -0.6744051349   -0.3797598735
C       -6.6451603233   -1.5605455924    0.2877461745
C       -0.5229358413   -1.2584730586    3.7212689145
O       -5.7670371947   -0.2657240958   -1.5219229666
S       -0.3656205412    0.2358926686    2.7250677812
H       -5.0360924522    1.2866362193    1.4466058269
H       -3.3206370438   -2.1403004419   -0.5096693555
H       -2.9488696609    1.6269059618    2.7041259969
H       -1.2093479427   -1.7811262197    0.7210923545
H        0.3858070820    2.2687235472    3.7170317472
H       -1.2414444100    1.6810153919    4.4236313599
H        1.7786363935    0.8243738366    1.8788356320
H        1.0279198101   -0.6351579739    0.9840359419
H       -7.1074686752   -1.0256862671    1.1212514718
H       -6.1688187042   -2.4697452381    0.6637462384
H       -7.4199354649   -1.8374354213   -0.4329196005
H        0.3139790571   -1.2948998701    4.4214703175
H       -1.4622939778   -1.2247009731    4.2760499571
H       -0.4948176382   -2.1362472193    3.0746510934
27   

C       -4.2110876451    0.5283434971    1.3014846740
C       -3.1639766785   -1.3300375306    0.1640888181
C       -3.0404332326    0.7458450403    2.0317375096
C       -1.9839239674   -1.0983274508    0.8826967274
C       -4.2782694235   -0.5000400064    0.3514471683
C       -1.9122052840   -0.0636410186    1.8338646362
C       -0.4840411363    1.5541624937    3.7977748628
C        0.9770661415    0.2409633559    1.7940249981
C       -5.5526347132   -0.7931453204   -0.4023735752
C       -6.6777805187   -1.4133370126    0.4002738803
C       -0.4731180047   -1.2516161080    3.7047215844
O       -5.5776653494   -0.8106540951   -1.6251078081
S       -0.3680880479    0.2758977322    2.7527350605
H       -5.0689397496    1.1706969753    1.4694500531
H       -3.2066918137   -2.1357163096   -0.5620542266
H       -3.0041496766    1.5628166032    2.7465153354
H       -1.1170827294   -1.7235769974    0.6927408928
H        0.2906347723    2.3091219448    3.8078764824
H       -1.3158785474    1.6345793713    4.4838247320
H        1.7570960573    0.9756907581    1.9436829182
H        1.0742447780   -0.4873575163    1.0013465726
H       -7.2249062218   -0.6326191636    0.9343158453
H       -6.2734819737   -2.1278834488    1.1221133933
H       -7.3666236966   -1.9375761148   -0.2682052263
H        0.3582032249   -1.2741360390    4.4121350309
H       -1.4180565296   -1.2721689062    4.2505889003
H       -0.4031747409   -2.1087348226    3.0339802054
27   

C       -4.2214549326    0.4386141240    1.3291738424
C       -3.1124549210   -1.3531654813    0.1398591527
C       -3.0550987735    0.6788501645    2.0595357591
C       -1.9386246293   -1.0973500386    0.8599554718
C       -4.2548099593   -0.5660383003    0.3514405747
C       -1.8994450789   -0.0843652057    1.8361023868
C       -0.5179416389    1.5383997959    3.8281543299
C        0.9770096366    0.3175408969    1.7912997531
C       -5.5109527480   -0.9022391278   -0.4071604098
C       -6.7359247782   -1.2563795636    0.4126320418
C       -0.4141408191   -1.2640397488    3.6755605919
O       -5.4753178618   -1.1661996163   -1.6015907924
S       -0.3635206886    0.2863338852    2.7566355551
H       -5.1000811242    1.0452925790    1.5200417074
H       -3.1297103342   -2.1437912070   -0.6040754536
H       -3.0441016617    1.4774751693    2.7955531871
H       -1.0515165414   -1.6874515748    0.6519821311
H        0.2296568945    2.3199723270    3.8490477926
H       -1.3472871041    1.5751392526    4.5209003292
H        1.7313520705    1.0764683680    1.9514157684
H        1.0960502645   -0.3920943069    0.9847539213
H       -7.2494108013   -0.3438508420    0.7251105623
H       -6.4423339818   -1.8273023697    1.2974927552
H       -7.4216094544   -1.8625211356   -0.1862763524
H        0.4212379910   -1.2751320397    4.3784472125
H       -1.3550229726   -1.3270629777    4.2251709148
H       -0.3203670430   -2.1037330430    2.9859103317
27   

C       -4.2961854580    0.3516050752    1.3414198310
C       -3.1272404915   -1.3842180745    0.1243676548
C       -3.1325875088    0.6314710746    2.0621812447
C       -1.9577015762   -1.0869058939    0.8350602844
C       -4.3010067146   -0.6484120983    0.3566431149
C       -1.9499287869   -0.0832556667    1.8212023951
C       -0.6203619773    1.5624664889    3.8290460056
C        0.9055620510    0.4437473040    1.7570600182
C       -5.5420513108   -1.0362612518   -0.3973081660
C       -6.8409699635   -1.1209980262    0.3814338932
C       -0.3964271279   -1.2301033719    3.6259206859
O       -5.4769441479   -1.5054385991   -1.5262963640
S       -0.4223254272    0.3368787226    2.7343154562
H       -5.1934963221    0.9241655874    1.5491536152
H       -3.1166212054   -2.1705046768   -0.6244915788
H       -3.1456419921    1.4230327271    2.8057794556
H       -1.0498417574   -1.6390312608    0.6128599350
H        0.0925732505    2.3755603442    3.8568867673
H       -1.4432167209    1.5503191456    4.5303736709
H        1.6276687625    1.2320934506    1.9234797846
H        1.0472212748   -0.2462095745    0.9371846007
H       -7.2846613317   -0.1265104453    0.4728017008
H       -6.6555430891   -1.5299468900    1.3782107600
H       -7.5443239802   -1.7758172058   -0.1409502341
H        0.4443742825   -1.2163561771    4.3222566933
H       -1.3290281410   -1.3447323100    4.1812957498
H       -0.2710829061   -2.0527575406    2.9209109083
27   

C       -4.2787099725    0.2829967449    1.3649740739
C       -3.0656867710   -1.3854433415    0.0992538722
C       -3.1222108737    0.5729418735    2.0928885218
C       -1.9038174323   -1.0768773258    0.8177262846
C       -4.2621715046   -0.6938405679    0.3547484390
C       -1.9217278975   -0.1029499068    1.8324564860
C       -0.6370783300    1.5197891123    3.8864743584
C        0.9174272153    0.5027843691    1.7836415868
C       -5.4874695608   -1.0830761863   -0.4210336051
C       -6.8421701634   -0.9075195046    0.2405136241
C       -0.3378425839   -1.2600004871    3.6038931092
O       -5.4039916265   -1.6947986673   -1.4787116685
S       -0.4056316836    0.3309764460    2.7581763553
H       -5.1855495930    0.8324777891    1.5917375498
H       -3.0296861040   -2.1498159073   -0.6712359296
H       -3.1552632573    1.3432601562    2.8578801077
H       -0.9816522615   -1.5975110522    0.5790379723
H        0.0515592945    2.3525796069    3.9355351529
H       -1.4572867371    1.4637759075    4.5887942583
H        1.6160619831    1.3075084412    1.9705822421
H        1.0787708424   -0.1611994426    0.9461538862
H       -7.1632249808    0.1339905687    0.1582844266
H       -6.7879511163   -1.1927763663    1.2944865817
H       -7.5804675754   -1.5446948776   -0.2549328711
H        0.5021871850   -1.2441147325    4.3011087288
H       -1.2671313112   -1.4156830144    4.1548439028
H       -0.1906221393   -2.0581881969    2.8753670364
27   

C       -4.2962966413    0.1854994688    1.4149334292
C       -3.0580998122   -1.4288913767    0.1066182327
C       -3.1352459746    0.5018292861    2.1242749631
C       -1.8925465503   -1.0932515737    0.8066049148
C       -4.2734160238   -0.7826666104    0.3939489345
C       -1.9203058530   -0.1332887277    1.8335248396
C       -0.6487519141    1.5038522459    3.8829617695
C        0.8951089482    0.5650862410    1.7364879279
C       -5.4960897906   -1.1869897160   -0.3779003455
C       -6.8562215643   -0.7616630620    0.1442899676
C       -0.2655901702   -1.2622490323    3.5577418744
O       -5.4240101350   -1.9285554206   -1.3501054691
S       -0.4007902371    0.3367467564    2.7356282555
H       -5.2095020410    0.7107382075    1.6702788426
H       -3.0095150036   -2.1816702070   -0.6745110450
H       -3.1768318929    1.2622688233    2.8986914823
H       -0.9596124493   -1.5817847483    0.5431928093
H        0.0112550646    2.3597661055    3.9273518623
H       -1.4508241962    1.4108172481    4.6021225338
H        1.5688626595    1.3919223259    1.9181946991
H        1.0624352573   -0.0842775709    0.8887805393
H       -6.9989641550    0.3098711784   -0.0178040932
H       -6.9398018888   -0.9891060595    1.2102685974
H       -7.6419545550   -1.3049516123   -0.3887358499
H        0.5870545320   -1.2286497461    4.2388155494
H       -1.1784590650   -1.4550399945    4.1242174892
H       -0.1074889393   -2.0456093023    2.8155245468
27   

C       -4.3245497281    0.0955211628    1.5115962223
C       -3.0507774419   -1.4597438246    0.1661995464
C       -3.1613644031    0.4574028135    2.1949862969
C       -1.8842513745   -1.0781735912    0.8406441763
C       -4.2860644653   -0.8679406952    0.4859563786
C       -1.9280762672   -0.1243607712    1.8725833629
C       -0.6794620514    1.5609068518    3.8959892020
C        0.8525856629    0.6891752755    1.7130508222
C       -5.5055591273   -1.3108677551   -0.2699716271
C       -6.8432210348   -0.6783921397    0.0675495393
C       -0.1909590818   -1.1878534597    3.5560884033
O       -5.4431344087   -2.1685683538   -1.1422999311
S       -0.4090799158    0.4057992673    2.7415530602
H       -5.2515261916    0.5799819212    1.7956672896
H       -2.9876163633   -2.2059582930   -0.6201593564
H       -3.2167813487    1.2116490160    2.9745685667
H       -0.9380251376   -1.5258108214    0.5530787838
H       -0.0562837174    2.4446172214    3.9254770412
H       -1.4590185582    1.4330005453    4.6343147932
H        1.4938780656    1.5445320346    1.8795873288
H        1.0288905132    0.0467065846    0.8619316266
H       -6.8021414920    0.4001161799   -0.1061359489
H       -7.0993656972   -0.8766873976    1.1115487096
H       -7.6236357748   -1.1043599034   -0.5697976210
H        0.6746341886   -1.1211124003    4.2181082892
H       -1.0824420144   -1.4184599264    4.1421820230
H       -0.0181996896   -1.9628258137    2.8083421556
