28   

C       -3.3212225305    4.3776586970    2.2440569100
C       -3.7908021600    3.1657879293    2.7564634002
C       -2.3297569089    4.3765830359    1.2594836967
C       -3.2716612658    1.9556713688    2.2822762850
C       -1.8015022694    3.1654146059    0.7970549122
C       -2.2641114281    1.9396938590    1.3025335613
C       -0.5315446173    0.3972595081    0.1308222595
C        0.5573618130   -0.2158354098    0.8483088590
C       -0.5199770938    0.0341626088   -1.3278069225
C       -1.7052720252    0.6891145939    0.8350892389
C        1.9106407213   -0.2954141774   -1.1914108811
C        0.6750112241   -0.9307029623   -3.2781643530
N        1.6972593044   -0.6040522435    0.2010148662
N        0.6617586330   -0.3969458571   -1.9208884767
O        0.4881888397   -0.4598523845    2.0401574602
O       -1.5567447477    0.0838009829   -1.9731171191
H       -3.7248732754    5.3153279408    2.6092829864
H       -4.5554077347    3.1622710976    3.5250156761
H       -1.9689373321    5.3146456642    0.8533760496
H       -3.6447764903    1.0258023355    2.6963761692
H       -1.0342803926    3.1792120052    0.0314841847
H       -2.0813494578   -0.1577448899    1.3996239450
H        2.3197242072    0.7160692894   -1.2887618761
H        2.6372160018   -1.0023478472   -1.6058358963
H        1.5990525438   -0.6447428921   -3.7904541432
H       -0.1597464103   -0.5407021845   -3.8694090326
H        0.6062938655   -2.0228123424   -3.2509352792
H        2.3621139121   -1.1252196279    0.7595598674
28   

C       -3.4678352780    4.3768650651    2.0372543279
C       -3.8193494545    3.2242365436    2.7439504294
C       -2.5591138532    4.2914047429    0.9793279681
C       -3.2640602518    1.9888467424    2.3916034970
C       -1.9930322367    3.0573223523    0.6384458881
C       -2.3346324603    1.8905729616    1.3412385514
C       -0.5676688164    0.3065544586    0.3024639628
C        0.4445842881   -0.4936968054    0.9450895788
C       -0.5892822519    0.1153714712   -1.1833444538
C       -1.7301788891    0.6159589429    0.9992064579
C        1.7750206999   -0.5716481055   -1.1152669147
C        0.4925263811   -0.6966274972   -3.2626271864
N        1.5235985099   -0.9629399303    0.2497719811
N        0.5314901867   -0.3849812602   -1.8377246714
O        0.3651601642   -0.8156033890    2.1179031846
O       -1.5897085586    0.4136844680   -1.8197671460
H       -3.8999862514    5.3337362261    2.3077077286
H       -4.5203355581    3.2868589221    3.5685574005
H       -2.2928068832    5.1811110930    0.4202736727
H       -3.5459642717    1.1072450707    2.9561453090
H       -1.2951767220    3.0040374907   -0.1896063718
H       -2.0060214521   -0.1327523293    1.7351582162
H        2.3554232248    0.3572009830   -1.1321174085
H        2.3662836768   -1.3543061770   -1.6024385220
H        0.9291541667    0.1245088901   -3.8396318288
H       -0.5337897367   -0.8591591451   -3.6077577697
H        1.0513578875   -1.6155330043   -3.4662032414
H        2.1345267159   -1.5860538056    0.7637554903
28   

C       -3.5031308570    4.3690353887    1.9198412313
C       -3.7837721642    3.2805586237    2.7485555731
C       -2.6372057548    4.2087243823    0.8354575624
C       -3.2011227631    2.0345950008    2.4909437047
C       -2.0421403250    2.9657795009    0.5891824599
C       -2.3132450257    1.8608503860    1.4140811042
C       -0.5585533986    0.2239358846    0.4581799466
C        0.4094827575   -0.6788243102    1.0311055037
C       -0.5737900502    0.1834651367   -1.0381814923
C       -1.6809349210    0.5709532910    1.1814983987
C        1.7474859828   -0.6439404371   -1.0253803012
C        0.4882335544   -0.4717437528   -3.1820780865
N        1.4608164477   -1.1481255131    0.2948940459
N        0.5254114961   -0.3120149963   -1.7320599533
O        0.3245559267   -1.0773165917    2.1799022344
O       -1.5481763819    0.5947754134   -1.6519144968
H       -3.9569545079    5.3338859179    2.1162398116
H       -4.4510453601    3.4013699313    3.5943752301
H       -2.4261765515    5.0470717672    0.1815260171
H       -3.4289574960    1.2047095601    3.1503312558
H       -1.3781262685    2.8609079787   -0.2609371640
H       -1.9106913009   -0.1080766581    1.9966480073
H        2.3838413568    0.2445845674   -0.9510712974
H        2.2942239696   -1.4115019496   -1.5834411236
H        0.9726855971    0.3814502388   -3.6670839454
H       -0.5405178442   -0.5449909486   -3.5496885580
H        1.0027569267   -1.3918103695   -3.4767429316
H        2.0470380152   -1.8302755102    0.7603809500
28   

C       -3.5261324039    4.3227356533    1.7807081803
C       -3.7444634331    3.2834648109    2.6864589842
C       -2.6841616766    4.1195489701    0.6853872968
C       -3.1253674243    2.0437515719    2.4931861703
C       -2.0528440060    2.8834398203    0.5020570018
C       -2.2646423990    1.8228452537    1.4018539458
C       -0.5523735902    0.1162681034    0.4755546056
C        0.3819167721   -0.8572351362    0.9874793815
C       -0.5681414297    0.1771205109   -1.0189372246
C       -1.6017219237    0.5333862538    1.2552839502
C        1.7293324785   -0.7149063970   -1.0552599796
C        0.4865558532   -0.3597404115   -3.1996171178
N        1.4123905840   -1.3165542698    0.2164252236
N        0.5237968923   -0.2928394548   -1.7421656467
O        0.2986919727   -1.3106519178    2.1159431291
O       -1.5429686808    0.6177285891   -1.6109373135
H       -4.0080641873    5.2828578250    1.9268934409
H       -4.3920152027    3.4374267534    3.5421903295
H       -2.5176140897    4.9203623618   -0.0259081777
H       -3.3073589670    1.2539170496    3.2132636883
H       -1.4016540363    2.7611039204   -0.3540799705
H       -1.7828121694   -0.0868893735    2.1274904980
H        2.3885075588    0.1466644901   -0.9029698517
H        2.2615369222   -1.4495741780   -1.6688465912
H        0.9658365376    0.5255339121   -3.6290556317
H       -0.5420423172   -0.4161240139   -3.5705962471
H        1.0062953214   -1.2556700790   -3.5535196298
H        1.9862236928   -2.0351136615    0.6407170721
28   

C       -3.6686934761    4.4606401923    1.7853456652
C       -3.7723477940    3.4535318815    2.7449722241
C       -2.8789292180    4.2556378086    0.6528318118
C       -3.0938763567    2.2433265243    2.5664368023
C       -2.1880962875    3.0496173699    0.4828191159
C       -2.2890529636    2.0153855379    1.4334058598
C       -0.6164262485    0.2767703450    0.4624806051
C        0.3054871641   -0.7439599812    0.9014048213
C       -0.6535541906    0.4281227142   -1.0242559032
C       -1.5706485656    0.7515161512    1.3198164504
C        1.6364932645   -0.4763073131   -1.1349842752
C        0.3829838436    0.0161930004   -3.2443270451
N        1.3124951557   -1.1747542851    0.0844386877
N        0.4325818178    0.0046554025   -1.7853166324
O        0.2452959545   -1.2491843773    2.0091910509
O       -1.6497489111    0.8626294054   -1.5835549133
H       -4.1968819207    5.3978983889    1.9196302797
H       -4.3773324802    3.6092556654    3.6310291657
H       -2.7966626195    5.0333436777   -0.0977727403
H       -3.1897813938    1.4796158348    3.3300464340
H       -1.5717626975    2.9440288443   -0.3992784568
H       -1.6702816904    0.1718627698    2.2320875336
H        2.3001025408    0.3669349125   -0.9144578662
H        2.1654376410   -1.1629925011   -1.8044289694
H        0.9073016481    0.8955611170   -3.6311181122
H       -0.6478126715    0.0348740745   -3.6126347789
H        0.8521005438   -0.8868012964   -3.6475633382
H        1.8908926216   -1.9158933342    0.4609756169
28   

C       -3.7081406570    4.4360169366    1.7477057144
C       -3.7116483997    3.4774604968    2.7601406584
C       -2.9759190381    4.2042404581    0.5828062668
C       -2.9937109959    2.2878010231    2.6005524209
C       -2.2453488144    3.0192695588    0.4305119883
C       -2.2496747969    2.0277833295    1.4321895253
C       -0.6369354768    0.2197057124    0.4523287466
C        0.2410909543   -0.8507027211    0.8651833512
C       -0.6443921047    0.4254178471   -1.0275293286
C       -1.4954000090    0.7808751293    1.3524531878
C        1.6226080329   -0.5363104474   -1.1274066558
C        0.4353056553    0.0847593238   -3.2406064945
N        1.2424165621   -1.2867780249    0.0440396610
N        0.4510392541    0.0133665741   -1.7822301693
O        0.1599416208   -1.3836020417    1.9586348304
O       -1.6349983781    0.8604805161   -1.5952678449
H       -4.2674067033    5.3571728015    1.8667773267
H       -4.2699836035    3.6545543319    3.6724466115
H       -2.9672192320    4.9463716290   -0.2072661381
H       -3.0146981574    1.5630966195    3.4067767452
H       -1.6699414369    2.9100363204   -0.4767377940
H       -1.5371485391    0.2495132515    2.2979193677
H        2.3037852331    0.2739248026   -0.8452601762
H        2.1500849060   -1.2033278311   -1.8175858570
H        0.9889905533    0.9660413976   -3.5791118219
H       -0.5853738630    0.1432162126   -3.6320318762
H        0.8928236862   -0.8120591695   -3.6700580306
H        1.7965770464   -2.0536578054    0.4051610972
28   

C       -3.7688895980    4.4410152605    1.7723311457
C       -3.6505732380    3.5343328920    2.8238483175
C       -3.1172833179    4.1831995358    0.5664787378
C       -2.8946897105    2.3689737905    2.6616702884
C       -2.3476371286    3.0235639934    0.4105090837
C       -2.2323895424    2.0782602958    1.4507653261
C       -0.6758792316    0.2143017146    0.4516183265
C        0.1519835921   -0.9018232339    0.8483080732
C       -0.6348871279    0.4707834717   -1.0192342357
C       -1.4418727712    0.8525603615    1.3820495918
C        1.6040743891   -0.5582595323   -1.0857450820
C        0.5110988596    0.1856639716   -3.2087374093
N        1.1552336775   -1.3475200996    0.0348899610
N        0.4763874854    0.0628609854   -1.7536942367
O        0.0349548307   -1.4588446422    1.9264112131
O       -1.6121568031    0.9055751901   -1.6084636076
H       -4.3585832982    5.3428284138    1.8927606044
H       -4.1442289782    3.7324592327    3.7685592228
H       -3.2004566452    4.8867657756   -0.2540056899
H       -2.8238650677    1.6859177424    3.5007837058
H       -1.8364337657    2.9106044632   -0.5319627856
H       -1.4251952626    0.3604684384    2.3492095045
H        2.3026672147    0.2126585976   -0.7427137960
H        2.1322689449   -1.2121046103   -1.7879259959
H        1.1181161984    1.0493618900   -3.4974234374
H       -0.4911296497    0.3093002113   -3.6312235223
H        0.9382822315   -0.7173374867   -3.6561095754
H        1.6765928020   -2.1414673131    0.3862520634
28   

C       -3.8328085538    4.4480508500    1.8168569173
C       -3.5650805626    3.6196343850    2.9039675837
C       -3.2878832415    4.1413778222    0.5708981837
C       -2.7678964578    2.4828151060    2.7380871711
C       -2.4769833193    3.0108989529    0.4091980771
C       -2.2101927369    2.1404493356    1.4873272445
C       -0.6975305456    0.2311095879    0.4826879803
C        0.0858791645   -0.9159923092    0.8798712099
C       -0.5959032775    0.5240289068   -0.9781492033
C       -1.3785390157    0.9417304749    1.4277949484
C        1.6183880879   -0.5623150635   -0.9885641595
C        0.6448638743    0.2954141676   -3.1226523732
N        1.1017519865   -1.3718764711    0.0880513911
N        0.5380317833    0.1164963780   -1.6773873569
O       -0.0734525637   -1.4844294681    1.9465180638
O       -1.5594127158    0.9328599554   -1.6057767188
H       -4.4556792099    5.3269446132    1.9397965841
H       -3.9754099255    3.8558756892    3.8793073370
H       -3.4872809956    4.7842938529   -0.2788832844
H       -2.5834773154    1.8620541951    3.6077891919
H       -2.0624615278    2.8698329021   -0.5737336895
H       -1.2967833450    0.4949666610    2.4134751038
H        2.3299140162    0.1721189168   -0.5960930637
H        2.1474256389   -1.2122618282   -1.6939990087
H        1.6268945086    0.7059255949   -3.3775896352
H       -0.1069943857    0.9938300100   -3.5038272388
H        0.5130993394   -0.6643401790   -3.6320055046
H        1.5879064848   -2.1889618640    0.4368593741
28   

C       -3.8683248277    4.3962670045    1.8331928306
C       -3.2049893217    3.8326917939    2.9200535151
C       -3.7183457825    3.8269864028    0.5701196922
C       -2.3801334883    2.7184070964    2.7360058600
C       -2.8993636746    2.7055214766    0.3892534138
C       -2.1802111503    2.1379666805    1.4640320951
C       -0.7076732070    0.2076594637    0.4350667388
C       -0.0584871304   -1.0257284046    0.8292366338
C       -0.5410974475    0.5520283975   -1.0081595666
C       -1.3050384471    0.9713541738    1.3974625175
C        1.3114729005   -1.0674414325   -1.1912674536
C        0.5009947451    0.1334194838   -3.2135697902
N        0.7774953028   -1.6966755778   -0.0144850285
N        0.3340572664   -0.1897622247   -1.7997164166
O       -0.2148994647   -1.5238061052    1.9311005032
O       -1.0174744344    1.5551852185   -1.5075246448
H       -4.5067157309    5.2617665154    1.9702891204
H       -3.3284170722    4.2579194885    3.9096725043
H       -4.2505467391    4.2433888092   -0.2775763016
H       -1.8810572115    2.3102300768    3.6077296130
H       -2.9098500554    2.2811032599   -0.6000291685
H       -1.0799044488    0.6227047743    2.4001839664
H        2.2057538724   -0.4919497424   -0.9264668381
H        1.6013237411   -1.8436107452   -1.9071911626
H        1.2148755841    0.9557441896   -3.3287978500
H       -0.4533627369    0.4294859223   -3.6611236741
H        0.8681302585   -0.7368105888   -3.7663643356
H        1.1716527539   -2.5479217857    0.3670730124
28   

C       -3.9609393880    4.2912162100    1.7281810172
C       -3.2507614922    3.8344860330    2.8369995568
C       -3.7583837466    3.6886473284    0.4866289322
C       -2.3319903042    2.7892019818    2.6979985235
C       -2.8448830518    2.6359170332    0.3510252570
C       -2.0922747126    2.1753871305    1.4509623492
C       -0.5941193530    0.2612937064    0.4442298619
C        0.0026076329   -0.9920155609    0.8484157410
C       -0.3536808879    0.6293516613   -0.9810754992
C       -1.1377057581    1.0732784636    1.4022842037
C        1.2804067406   -1.2110690352   -1.2351714652
C        0.6425173211    0.1810694955   -3.1945292908
N        0.7595161002   -1.7416139263   -0.0037047220
N        0.4288583853   -0.1831763271   -1.7974888697
O       -0.1427557896   -1.4491278197    1.9693247620
O       -0.6994562985    1.7100268919   -1.4303200346
H       -4.6725726317    5.1025406563    1.8318125838
H       -3.4115965460    4.2884432000    3.8083132300
H       -4.3181122586    4.0278250206   -0.3774984871
H       -1.7983724803    2.4573147026    3.5815275425
H       -2.7798257516    2.1736697317   -0.6220682722
H       -0.8755820676    0.7688645176    2.4105410581
H        2.2780562376   -0.7947696069   -1.0557993582
H        1.3752893264   -2.0308509071   -1.9548995518
H        1.4053256987    0.9634435225   -3.2661695643
H       -0.2854197276    0.5490041897   -3.6443913015
H        0.9700518211   -0.6875112136   -3.7743478077
H        1.1130191235   -2.6008608909    0.3994168886
28   

C       -4.0350161694    4.2364312956    1.7340109212
C       -3.2644769048    3.8669915723    2.8361751642
C       -3.8237758068    3.6104729876    0.5047174793
C       -2.2802136284    2.8818791149    2.7040535939
C       -2.8453411424    2.6170196020    0.3766736382
C       -2.0423574250    2.2416202414    1.4715588177
C       -0.5770280419    0.3297687022    0.4469267067
C       -0.0283228181   -0.9419353104    0.8492741390
C       -0.2813660145    0.7185872075   -0.9620420450
C       -1.0286584283    1.1963826025    1.4095529631
C        1.1727602911   -1.2685015146   -1.2756376630
C        0.7239123401    0.2778099950   -3.1710540803
N        0.6679592717   -1.7387098930   -0.0117204632
N        0.4544952415   -0.1210455677   -1.7933087833
O       -0.1604016526   -1.3725035934    1.9821035531
O       -0.5710732035    1.8289654296   -1.3813121114
H       -4.7974456302    5.0008151601    1.8330764672
H       -3.4299563400    4.3415153838    3.7967938811
H       -4.4235715687    3.8876495370   -0.3545927345
H       -1.7000670418    2.6130915051    3.5796097172
H       -2.7479319971    2.1351699089   -0.5859531605
H       -0.7052252213    0.9321185040    2.4114497987
H        2.2296699338   -1.0037149962   -1.1596961466
H        1.1024997365   -2.0858684944   -2.0009093916
H        1.5521486999    0.9934245228   -3.1998018710
H       -0.1606629525    0.7408365778   -3.6205394472
H        0.9866527016   -0.5925800112   -3.7804805469
H        0.9990713642   -2.6010148506    0.4038818401
28   

C       -4.0936530804    4.1695518629    1.7688999919
C       -3.2626842111    3.8817956097    2.8524032313
C       -3.8764915580    3.5348608465    0.5444718424
C       -2.2144090735    2.9665750733    2.7078498897
C       -2.8354782929    2.6090910224    0.4052433766
C       -1.9805131175    2.3127023388    1.4830551351
C       -0.5511876252    0.4046177143    0.4365775974
C       -0.0494507021   -0.8768806743    0.8598788611
C       -0.1977732626    0.7804821995   -0.9624482624
C       -0.9062021502    1.3337567770    1.3879375061
C        1.0989637439   -1.3183670366   -1.2809344358
C        0.8521371611    0.3130078579   -3.1436210910
N        0.6049939461   -1.7214685894    0.0114425895
N        0.5171648416   -0.0881380262   -1.7810838223
O       -0.1757608000   -1.2683185359    2.0073032091
O       -0.4590730918    1.8974271644   -1.3855358404
H       -4.9053076382    4.8799673246    1.8780777465
H       -3.4315420812    4.3649074449    3.8081008916
H       -4.5171717675    3.7551809316   -0.3016709347
H       -1.5873952528    2.7569438454    3.5670433268
H       -2.7106561890    2.1229010163   -0.5534655672
H       -0.5098253652    1.1198437263    2.3755885589
H        2.1854464908   -1.1922375582   -1.2165690772
H        0.8898640225   -2.1212650529   -1.9955240813
H        1.7158800889    0.9857669011   -3.1356361927
H        0.0072683340    0.8247539522   -3.6161783005
H        1.0916427049   -0.5621216564   -3.7559185134
H        0.9201360752   -2.5766145840    0.4535439427
28   

C       -4.1589138922    4.1029264143    1.8555197548
C       -3.2551376434    3.8855256521    2.8974456296
C       -3.9647152542    3.4672981541    0.6270857595
C       -2.1583641489    3.0371532771    2.7087190497
C       -2.8758969012    2.6065373542    0.4451623683
C       -1.9552712106    2.3779487411    1.4824790095
C       -0.5755508761    0.4715813806    0.3902398747
C       -0.1347925576   -0.8180913136    0.8489458962
C       -0.1540982633    0.8131910850   -0.9990714067
C       -0.8344180784    1.4648461545    1.3182076623
C        1.0425155964   -1.3533865767   -1.2568470589
C        0.9807608492    0.2928831966   -3.1244729673
N        0.5011961700   -1.7072166589    0.0320049799
N        0.5693307565   -0.0848973023   -1.7763774270
O       -0.2816046796   -1.1681193137    2.0070181508
O       -0.4028569838    1.9220533087   -1.4514911917
H       -5.0077149162    4.7619108830    1.9993022642
H       -3.4054621771    4.3709916747    3.8550033704
H       -4.6578154134    3.6390001733   -0.1884520086
H       -1.4738679972    2.8785658630    3.5342557344
H       -2.7478440517    2.1233846104   -0.5161995085
H       -0.3510408161    1.3019889093    2.2763578357
H        2.1344844640   -1.3129664985   -1.1767089011
H        0.7812794571   -2.1429374685   -1.9691605935
H        1.8703004926    0.9296317068   -3.0811721151
H        0.1797918795    0.8350813093   -3.6378192214
H        1.2114378714   -0.5954428473   -3.7209719568
H        0.7869482083   -2.5552320318    0.5067100352
28   

C       -4.1906605466    4.0048398962    1.9649217705
C       -3.1979207738    3.8690926442    2.9383934274
C       -4.0404713439    3.3714345795    0.7286578094
C       -2.0566839496    3.1030423232    2.6744265163
C       -2.9063257453    2.5919991914    0.4728280118
C       -1.9011346043    2.4442260330    1.4419606516
C       -0.5181760663    0.5828847507    0.2702367871
C       -0.1451696998   -0.7114968800    0.7722592532
C        0.0133261744    0.8878462331   -1.0885083576
C       -0.7377236501    1.6154604011    1.1802476729
C        0.9676120123   -1.3987029953   -1.3317521396
C        1.2606380930    0.2993380457   -3.1310249613
N        0.4624973121   -1.6547644555   -0.0050704803
N        0.7134426462   -0.0596180206   -1.8267444557
O       -0.3096701237   -1.0115479504    1.9418272870
O       -0.1432956239    2.0101982061   -1.5491961679
H       -5.0737568297    4.6002880300    2.1674283648
H       -3.3135746553    4.3538313405    3.9011055006
H       -4.8018128702    3.4835776742   -0.0347408027
H       -1.3016683256    3.0049893771    3.4461044732
H       -2.7984931939    2.1117095738   -0.4934873492
H       -0.1573068385    1.5115643142    2.0914230053
H        2.0509212442   -1.5623645136   -1.3217658410
H        0.5194357950   -2.1206717802   -2.0221847485
H        2.1995313067    0.8484149078   -3.0067355443
H        0.5552500848    0.9219274278   -3.6913717661
H        1.4534054208   -0.5973334594   -3.7285743761
H        0.7325334118   -2.4844867969    0.5095188698
28   

C       -4.2207360389    3.2361097219    2.4829113848
C       -3.0656255287    3.3586937935    3.2590554183
C       -4.1703382382    2.5466703591    1.2686146539
C       -1.8622295280    2.7954031130    2.8194012023
C       -2.9689974450    1.9713402878    0.8378144928
C       -1.8000304753    2.0868046469    1.6072385305
C       -0.2945359970    0.4932011980    0.2095163405
C        0.0591253767   -0.8266239662    0.6666478423
C        0.3055234472    0.8056354534   -1.1339461989
C       -0.5629857322    1.4765270594    1.1682981049
C        0.3263218434   -1.5972673087   -1.6423057946
C        1.4602645392    0.0189680508   -3.1869346024
N        0.4179685398   -1.8050717351   -0.2181849591
N        0.6958872924   -0.2342905543   -1.9708280797
O        0.1036131625   -1.1085950716    1.8512618570
O        0.4835953868    1.9690989497   -1.4631713329
H       -5.1526767009    3.6744251052    2.8219002773
H       -3.1018224920    3.8872139815    4.2049189870
H       -5.0625388272    2.4568274431    0.6595323151
H       -0.9779801969    2.8961103310    3.4385188769
H       -2.9436334202    1.4409713319   -0.1071654846
H        0.2143669947    1.5547752991    1.9212212993
H        1.0024079178   -2.2943103288   -2.1486818275
H       -0.6951874062   -1.8000883068   -1.9818880557
H        2.5281970870   -0.1227460289   -2.9928917169
H        1.3030955969    1.0380948323   -3.5544542784
H        1.1485182305   -0.6662494787   -3.9814906491
H        0.7555433627   -2.6663348117    0.1939857755
