18   
Generated by ForceBalance from scan.xyz: Frame 1 of 24
C       -2.4588454631    0.6074626093    0.0186627128
C       -0.0043683456    1.0320654921    1.8485393265
C        0.7924740382    0.9846133914    3.8676704321
C        0.3327975579   -0.3109690701   -0.2550737335
C       -0.0889632581    1.0408190322    0.3378369951
N       -3.3284360423   -0.1564880637    0.1876283627
N        1.1173958866    1.1216612755    2.4975084577
N       -1.1241090895    0.9173455436    2.6494888224
N       -0.6020014656    0.6806407133    3.9392377214
N       -1.4216282319    1.4397412409   -0.1732355156
O        1.5172337144    1.1022531004    4.8341266336
H       -0.4636409580   -1.0528882842   -0.1466922460
H        0.5323013721   -0.1929654461   -1.3231488684
H        1.2350696587   -0.6694093971    0.2424859197
H        0.5985691019    1.8113283990   -0.0175955268
H       -1.8747048590    0.2863817128    2.3678695438
H       -1.1127673235    1.1446408502    4.6857221666
H       -1.6554214616    2.4190740968   -0.0393971271
18   
Generated by ForceBalance from scan.xyz: Frame 2 of 24
C       -2.4723452076    0.5929509302    0.0454788896
C       -0.0073218517    1.0359990605    1.8526257425
C        0.8003952041    1.0066755002    3.8677352246
C        0.3308298132   -0.3131094482   -0.2589176488
C       -0.0996449181    1.0377965742    0.3427064713
N       -3.3381282736   -0.1728714789    0.2253296945
N        1.1167317324    1.1409679967    2.4953656772
N       -1.1214049792    0.9127751848    2.6599789256
N       -0.5903450245    0.6881230062    3.9480563396
N       -1.4393330497    1.4270046014   -0.1617893800
O        1.5286150258    1.1370443874    4.8299479398
H       -0.5281745588   -0.9790204403   -0.3772706460
H        0.7493157909   -0.1512889420   -1.2552110667
H        1.0866084851   -0.7891391013    0.3668774192
H        0.5694713150    1.8189786156   -0.0231900496
H       -1.8668752884    0.2728077671    2.3851020076
H       -1.1023942531    1.1498837930    4.6950528060
H       -1.6760821774    2.4060057056   -0.0300391293
18   
Generated by ForceBalance from scan.xyz: Frame 3 of 24
C       -2.4975161361    0.6029056439    0.0498191305
C        0.0021628417    1.0506757052    1.8057037449
C        0.8527318836    1.0494625352    3.8036051583
C        0.2978858356   -0.3214681059   -0.3027330546
C       -0.1200124328    1.0413486749    0.2982839090
N       -3.3582101279   -0.1644517595    0.2466856536
N        1.1353504653    1.1941192331    2.4250779221
N       -1.0893095686    0.8904331201    2.6359643600
N       -0.5247348713    0.6836231972    3.9127633559
N       -1.4674387461    1.4347057619   -0.1805201715
O        1.5960261165    1.2037335642    4.7507125477
H       -0.5762473947   -0.8771424905   -0.6500611197
H        0.9421859746   -0.1616353419   -1.1698518426
H        0.8464889285   -0.9221032682    0.4237300159
H        0.5457956926    1.8195181909   -0.0785366456
H       -1.8229502107    0.2310172783    2.3762498448
H       -1.0360548569    1.1289865245    4.6701759941
H       -1.6984466580    2.4143822124   -0.0433126136
18   
Generated by ForceBalance from scan.xyz: Frame 4 of 24
C       -2.5096059572    0.6077387603    0.0557809497
C       -0.0038443757    1.0666083992    1.8027268279
C        0.8642405150    1.0886032549    3.7927570827
C        0.2711372718   -0.3247234440   -0.2889105174
C       -0.1388265114    1.0516410828    0.2963957631
N       -3.3609676428   -0.1719662263    0.2438397979
N        1.1268954869    1.2596529255    2.4128866524
N       -1.0792835324    0.8487876258    2.6414346003
N       -0.4932777805    0.6564133868    3.9115325907
N       -1.4872003532    1.4511756023   -0.1699280006
O        1.6084061542    1.2700525977    4.7341990450
H       -0.5438559043   -0.7502541699   -0.8779233653
H        1.1409077446   -0.2147628024   -0.9383638296
H        0.5300641811   -1.0333934247    0.4997604316
H        0.5424267242    1.8202245734   -0.0718986069
H       -1.7837750998    0.1584611742    2.3817538783
H       -1.0165832283    1.0743239745    4.6764934573
H       -1.7215508644    2.4257141727   -0.0033974804
18   
Generated by ForceBalance from scan.xyz: Frame 5 of 24
C       -2.5122224729    0.5692875053    0.0645387868
C       -0.0050063584    1.0736147080    1.7992978615
C        0.8838879785    1.0899409879    3.7802670291
C        0.2684717490   -0.3154178612   -0.2798618553
C       -0.1551512091    1.0589063550    0.2934548990
N       -3.3434090631   -0.2319664948    0.2517558890
N        1.1326790052    1.2618239535    2.3979277817
N       -1.0726230779    0.8589359018    2.6489719911
N       -0.4738167618    0.6626468961    3.9126778621
N       -1.5110332417    1.4388383115   -0.1597613304
O        1.6385448429    1.2674475175    4.7141077977
H       -0.4117080564   -0.6175381711   -1.0790094823
H        1.2882133702   -0.2683765712   -0.6629434945
H        0.2337510172   -1.0936036177    0.4863068419
H        0.5286833467    1.8298426776   -0.0664029927
H       -1.7807282891    0.1697717875    2.3959534329
H       -0.9875899168    1.0808800912    4.6838604849
H       -1.7646483094    2.4055060144    0.0239816666
18   
Generated by ForceBalance from scan.xyz: Frame 6 of 24
C       -2.5200799946    0.5336149112    0.0620637571
C        0.0072986209    1.0749420373    1.7637129414
C        0.9284500848    1.0808585378    3.7299983574
C        0.2594199542   -0.3031671332   -0.3132930726
C       -0.1697703164    1.0624002567    0.2600215543
N       -3.3375880579   -0.2795582135    0.2576668225
N        1.1575466782    1.2440431724    2.3429989339
N       -1.0508666640    0.8816498615    2.6314124959
N       -0.4341882574    0.6783804184    3.8857655656
N       -1.5369594539    1.4215888823   -0.1693956591
O        1.7015677756    1.2476415495    4.6505485758
H       -0.2504977124   -0.4853230384   -1.2621567582
H        1.3408874953   -0.3278895576   -0.4497518821
H       -0.0165119205   -1.1185545461    0.3611561110
H        0.5048665769    1.8375730275   -0.1096330546
H       -1.7694247245    0.1982666408    2.3918593280
H       -0.9276038514    1.1080559707    4.6638908901
H       -1.8048130342    2.3832132585    0.0199309860
18   
Generated by ForceBalance from scan.xyz: Frame 7 of 24
C       -2.5272694092    0.5030582838    0.0780386953
C        0.0131362846    1.0690453969    1.7529073852
C        0.9504402573    1.0760016561    3.7112776415
C        0.2611845637   -0.2962216215   -0.3307836849
C       -0.1773226247    1.0564236523    0.2509018132
N       -3.3381309935   -0.3130209804    0.2888433437
N        1.1701447050    1.2277594436    2.3216153306
N       -1.0398445686    0.8923033216    2.6303119506
N       -0.4152491290    0.6902565473    3.8804861677
N       -1.5534348400    1.3968567368   -0.1676414109
O        1.7329716895    1.2394611081    4.6244634200
H       -0.0501250478   -0.3657371645   -1.3759047779
H        1.3445378006   -0.3948927058   -0.2500251468
H       -0.2017096780   -1.1267787134    0.2101400179
H        0.4795000011    1.8395915573   -0.1345583761
H       -1.7678273825    0.2153140831    2.4011226137
H       -0.8980054578    1.1284357518    4.6605109943
H       -1.8289864375    2.3583335414    0.0104874309
18   
Generated by ForceBalance from scan.xyz: Frame 8 of 24
C       -2.5379560911    0.4855407312    0.1024765760
C        0.0182646077    1.0645374068    1.7446680569
C        0.9696374442    1.0780063320    3.6962483162
C        0.2605696970   -0.2899400736   -0.3530307569
C       -0.1838248289    1.0507928439    0.2446269064
N       -3.3459391113   -0.3281341062    0.3332053893
N        1.1804328902    1.2185755450    2.3041941305
N       -1.0291773551    0.8999169245    2.6306546986
N       -0.3972306310    0.7025275428    3.8773987692
N       -1.5685216128    1.3775670287   -0.1634836355
O        1.7596930853    1.2421990752    4.6028458939
H        0.1626916745   -0.2580891322   -1.4407721465
H        1.3028077914   -0.4742178886   -0.0860964788
H       -0.3473188204   -1.1151369940    0.0288548153
H        0.4499961079    1.8435135103   -0.1593433652
H       -1.7641008546    0.2271353787    2.4113562936
H       -0.8722413431    1.1471833605    4.6584759224
H       -1.8463156190    2.3411715799   -0.0017292076
18   
Generated by ForceBalance from scan.xyz: Frame 9 of 24
C       -2.5478088588    0.4743918502    0.1250854040
C        0.0223980357    1.0611474248    1.7383053174
C        0.9861742731    1.0893765571    3.6834489374
C        0.2576402525   -0.2915909471   -0.3727391764
C       -0.1884247741    1.0431297682    0.2400610455
N       -3.3543283712   -0.3358395107    0.3729698340
N        1.1874569476    1.2235291815    2.2894864125
N       -1.0181269646    0.8954722346    2.6317852270
N       -0.3775946876    0.7080267766    3.8753501504
N       -1.5799520053    1.3616127655   -0.1599407425
O        1.7811556525    1.2619393776    4.5841960877
H        0.3853705361   -0.1804692329   -1.4517879977
H        1.2190743896   -0.5789556326    0.0584268824
H       -0.4661025518   -1.0855057597   -0.1701493236
H        0.4230587284    1.8444424964   -0.1801869646
H       -1.7528292575    0.2197982708    2.4208528776
H       -0.8501688095    1.1535244832    4.6574203995
H       -1.8571822475    2.3277491482   -0.0135507148
18   
Generated by ForceBalance from scan.xyz: Frame 10 of 24
C       -2.5585751978    0.4603463920    0.1508959169
C        0.0199830835    1.0652330311    1.7411434894
C        0.9933359006    1.1111512540    3.6815243683
C        0.2525689641   -0.2925636009   -0.3793358545
C       -0.1992864813    1.0406832506    0.2445552717
N       -3.3592848547   -0.3531865572    0.4067626857
N        1.1858159644    1.2423857107    2.2860535196
N       -1.0140830575    0.8917435529    2.6405771113
N       -0.3653346513    0.7160367384    3.8815102628
N       -1.5969907691    1.3508239894   -0.1458688572
O        1.7907571881    1.2959389046    4.5776767594
H        0.6130209575   -0.1290586925   -1.3968679025
H        1.0850812592   -0.6994965757    0.1987055931
H       -0.5567322254   -1.0265930134   -0.3849592386
H        0.3923330819    1.8511128995   -0.1855289059
H       -1.7418955028    0.2067915923    2.4355916901
H       -0.8388912116    1.1588600426    4.6644880081
H       -1.8777441130    2.3153509015    0.0051979628
18   
Generated by ForceBalance from scan.xyz: Frame 11 of 24
C       -2.5684791316    0.4491850171    0.1656347400
C        0.0200846484    1.0730062497    1.7320797299
C        1.0136938954    1.1331803104    3.6618433549
C        0.2469458552   -0.2957901994   -0.3881887317
C       -0.2122072796    1.0418858530    0.2377758158
N       -3.3609409723   -0.3707565142    0.4267341008
N        1.1888349774    1.2683044032    2.2644466988
N       -1.0014917088    0.8826953670    2.6422103579
N       -0.3364605952    0.7162840969    3.8760292168
N       -1.6147133884    1.3449455474   -0.1404299019
O        1.8176899479    1.3298685432    4.5495575054
H        0.8408416574   -0.1115653709   -1.2850486536
H        0.8849085123   -0.8402495031    0.3108907361
H       -0.6062956417   -0.9291888001   -0.6392198705
H        0.3712502998    1.8578793218   -0.1920411538
H       -1.7204913833    0.1864289936    2.4443333978
H       -0.8081795300    1.1520573135    4.6640712812
H       -1.8986067946    2.3080476344    0.0139986208
18   
Generated by ForceBalance from scan.xyz: Frame 12 of 24
C       -2.5858042278    0.4619903597    0.1704336028
C        0.0184752571    1.0926715994    1.7083107183
C        1.0386259163    1.1910753911    3.6226065896
C        0.2113101712   -0.3094774842   -0.3850931997
C       -0.2341051055    1.0483651332    0.2175649481
N       -3.3735918164   -0.3614239592    0.4341094312
N        1.1817720202    1.3541282288    2.2242354593
N       -0.9742591227    0.8313276318    2.6325822575
N       -0.2799575146    0.6894761541    3.8541101604
N       -1.6360638812    1.3598820762   -0.1442676522
O        1.8442646506    1.4255709392    4.4994881800
H        1.0231857803   -0.1582902977   -1.0980517631
H        0.5696227972   -0.9911088063    0.3884878755
H       -0.6192959119   -0.7899750898   -0.9060208013
H        0.3687988980    1.8506793289   -0.2105827803
H       -1.6571062871    0.0992068707    2.4373406201
H       -0.7626526230    1.0918367010    4.6533588443
H       -1.9148430932    2.3220363702    0.0253607601
18   
Generated by ForceBalance from scan.xyz: Frame 13 of 24
C       -2.5913402765    0.4300101774    0.1795301713
C        0.0170738430    1.1030849349    1.6933358083
C        1.0627332307    1.2040176106    3.5936398904
C        0.1971408484   -0.3050196019   -0.3829161338
C       -0.2551034574    1.0534837512    0.2052814746
N       -3.3573908402   -0.4126981942    0.4457997449
N        1.1873959917    1.3647552354    2.1933222302
N       -0.9634462003    0.8445483306    2.6312607861
N       -0.2530627233    0.7043427945    3.8435891903
N       -1.6630385094    1.3498035986   -0.1385388667
O        1.8799670692    1.4398322488    4.4594402869
H        1.1678519875   -0.1953069168   -0.8684118373
H        0.2670250267   -1.0829741504    0.3793093216
H       -0.5148166867   -0.6320987726   -1.1445416295
H        0.3528489634    1.8540608758   -0.2198588880
H       -1.6496561099    0.1127931779    2.4467798148
H       -0.7249114547    1.1071169091    4.6490310549
H       -1.9549554613    2.3039637057    0.0536630405
18   
Generated by ForceBalance from scan.xyz: Frame 14 of 24
C       -2.3145287827    0.8337818753   -0.2103535567
C        0.0188070352    1.0035005917    1.8161533184
C        0.6695588579    0.8541464637    3.8822599902
C        0.3564214903   -0.3554315377   -0.2622823096
C        0.0377790785    1.0430596840    0.3025914045
N       -3.2472878976    0.1307358872   -0.1514546591
N        1.0957977972    1.0136051366    2.5421670594
N       -1.1591406545    0.9297636556    2.5355036626
N       -0.7409262240    0.6251624422    3.8497972461
N       -1.2047878806    1.5903544345   -0.2807552436
O        1.3309263363    0.9033395143    4.8986742311
H        1.4375390179   -0.4989484836   -0.2914282199
H       -0.1022618995   -1.1545526159    0.3237242467
H       -0.0130836156   -0.4217736538   -1.2891033718
H        0.8500097654    1.7270229991    0.0480446625
H       -1.9192430306    0.3480666110    2.1825168751
H       -1.2744497199    1.0988606472    4.5740365455
H       -1.3706363922    2.5734371338   -0.0845007931
18   
Generated by ForceBalance from scan.xyz: Frame 15 of 24
C       -2.3315992231    0.8031065906   -0.1895348445
C        0.0162478929    1.0020995427    1.8190741162
C        0.6804360117    0.8513948915    3.8808773354
C        0.3597496591   -0.3443892806   -0.2639706012
C        0.0251437499    1.0423059508    0.3055944628
N       -3.2585823022    0.0936142477   -0.1172598128
N        1.0986751389    0.9997449537    2.5370597182
N       -1.1571983792    0.9460459609    2.5472189429
N       -0.7331000560    0.6417165381    3.8593043607
N       -1.2297169169    1.5692007215   -0.2726239787
O        1.3499312096    0.8957774374    4.8921890135
H        1.4090842816   -0.5694911115   -0.0661169460
H       -0.2660726827   -1.1270049207    0.1723165733
H        0.2061095995   -0.3362535970   -1.3462495877
H        0.8221078973    1.7384379609    0.0347626108
H       -1.9269534570    0.3720619357    2.2024430032
H       -1.2557204842    1.1237584410    4.5859397948
H       -1.4042162765    2.5530312061   -0.0884116811
18   
Generated by ForceBalance from scan.xyz: Frame 16 of 24
C       -2.3507739464    0.7785606096   -0.1578845142
C        0.0140822784    0.9998058620    1.8228202554
C        0.6885386430    0.8531656553    3.8817178378
C        0.3689560212   -0.3330696184   -0.2725623877
C        0.0145451072    1.0407437515    0.3094695624
N       -3.2762559938    0.0696472763   -0.0627941696
N        1.1004244605    0.9892899402    2.5348809430
N       -1.1553395603    0.9590654720    2.5579090168
N       -0.7269961687    0.6580968999    3.8689848549
N       -1.2525750826    1.5460699080   -0.2638044925
O        1.3641875767    0.8957895132    4.8890798499
H        1.3357850913   -0.6508018881    0.1219211161
H       -0.3806811124   -1.0832205035   -0.0044861192
H        0.4242314376   -0.2674981215   -1.3618111804
H        0.7883876329    1.7556333929    0.0204521354
H       -1.9331755255    0.3913405734    2.2208716346
H       -1.2416950077    1.1473842202    4.5963721489
H       -1.4295940074    2.5340175537   -0.1074341813
18   
Generated by ForceBalance from scan.xyz: Frame 17 of 24
C       -2.3657311448    0.7622181739   -0.1321717085
C        0.0133175065    1.0007502260    1.8261208488
C        0.6983670580    0.8683531410    3.8822198257
C        0.3741552487   -0.3276470570   -0.2818392574
C        0.0075352212    1.0387469603    0.3134668491
N       -3.2895575615    0.0533993622   -0.0204232582
N        1.1031654968    1.0003813208    2.5329505106
N       -1.1521401455    0.9555429259    2.5667813783
N       -0.7159415606    0.6641483723    3.8770866659
N       -1.2697005045    1.5293439724   -0.2564291939
O        1.3783381401    0.9201439798    4.8862381536
H        1.2112082317   -0.7551995935    0.2730095529
H       -0.4676772873   -1.0222610594   -0.1990301744
H        0.6351674542   -0.2219691771   -1.3366332033
H        0.7585049283    1.7704856503    0.0075378247
H       -1.9292400838    0.3830389664    2.2362194451
H       -1.2307975863    1.1530741535    4.6046082280
H       -1.4480062395    2.5196104929   -0.1178111359
18   
Generated by ForceBalance from scan.xyz: Frame 18 of 24
C       -2.3806791621    0.7451213805   -0.1078198085
C        0.0112248549    1.0046021054    1.8292026962
C        0.7090076591    0.8880326463    3.8820931354
C        0.3764528982   -0.3256144352   -0.2893920367
C       -0.0031177786    1.0378127723    0.3168506926
N       -3.3002288232    0.0324297816    0.0144275399
N        1.1049551840    1.0164597660    2.5300692953
N       -1.1493617705    0.9534594873    2.5766376915
N       -0.7037031995    0.6726471772    3.8858134508
N       -1.2895466740    1.5170067663   -0.2462302915
O        1.3938654845    0.9506887747    4.8822038351
H        1.0390755104   -0.8666212294    0.3881598704
H       -0.5176960869   -0.9422317484   -0.4224615522
H        0.8539599817   -0.1962038982   -1.2618936144
H        0.7282956581    1.7841549854    0.0001643677
H       -1.9244308438    0.3740919486    2.2533422899
H       -1.2189885412    1.1601015077    4.6139917956
H       -1.4731457613    2.5065116371   -0.1083156843
18   
Generated by ForceBalance from scan.xyz: Frame 19 of 24
C       -2.4011508930    0.7553870810   -0.0844149024
C       -0.0022343123    1.0223189302    1.8406937219
C        0.7100647854    0.9372587758    3.8900296633
C        0.3531238021   -0.3291439611   -0.2716076995
C       -0.0238736563    1.0456554718    0.3287568576
N       -3.3164547500    0.0375401551    0.0394531511
N        1.0930110718    1.0881700918    2.5366907707
N       -1.1547051670    0.9135492067    2.5933187794
N       -0.6906484399    0.6522321794    3.9002011913
N       -1.3109870951    1.5277875676   -0.2289074125
O        1.3953459788    1.0316992910    4.8873942201
H        0.7818060733   -0.9812019884    0.4911198231
H       -0.5377439523   -0.8302727068   -0.6592978936
H        1.0643868083   -0.2128194686   -1.0903128617
H        0.7098754777    1.7890974192    0.0125527505
H       -1.9067882837    0.3039211839    2.2720168351
H       -1.2250245193    1.1147577752    4.6309549877
H       -1.4928332624    2.5168945555   -0.0854187247
18   
Generated by ForceBalance from scan.xyz: Frame 20 of 24
C       -2.4120547491    0.7513424065   -0.0719204196
C       -0.0126714502    1.0317647820    1.8535655238
C        0.7129454186    0.9679544920    3.8989643301
C        0.3260413329   -0.3419224479   -0.2400776035
C       -0.0421338983    1.0478511489    0.3414217724
N       -3.3197137924    0.0223246600    0.0412411343
N        1.0824568535    1.1410959358    2.5440230684
N       -1.1563736092    0.8730903812    2.6115662258
N       -0.6745704022    0.6243035086    3.9152628441
N       -1.3282492986    1.5349998532   -0.2093876235
O        1.3993119223    1.0864389421    4.8928807114
H        0.4760373685   -1.0789652801    0.5508452053
H       -0.4654901512   -0.7045192751   -0.8990458939
H        1.2497654967   -0.2774944338   -0.8170188339
H        0.7080204953    1.7792067201    0.0366214826
H       -1.8830945635    0.2333219447    2.2907226705
H       -1.2223116669    1.0643948994    4.6500699775
H       -1.5159157938    2.5192045877   -0.0405504366
18   
Generated by ForceBalance from scan.xyz: Frame 21 of 24
C       -2.4271986624    0.7244069850   -0.0655068367
C       -0.0123446993    1.0421830706    1.8365176158
C        0.7439306317    0.9743285560    3.8708030912
C        0.3057063467   -0.3347773519   -0.2430992518
C       -0.0640319992    1.0572869516    0.3240870293
N       -3.3180848215   -0.0239775338    0.0533644471
N        1.0932875032    1.1486403329    2.5106506267
N       -1.1447295985    0.8847510715    2.6114733870
N       -0.6437957328    0.6333202242    3.9075672346
N       -1.3602392654    1.5305952749   -0.2090962269
O        1.4454353812    1.0901928656    4.8544344201
H        0.1912894261   -1.1215949325    0.5054264250
H       -0.3055266805   -0.5701377975   -1.1162075297
H        1.3555356756   -0.3363745669   -0.5420904005
H        0.6906057882    1.7858102246    0.0223670259
H       -1.8768425013    0.2460667599    2.3008646599
H       -1.1796686422    1.0730401805    4.6512718231
H       -1.5634018200    2.5090419022   -0.0249062553
18   
Generated by ForceBalance from scan.xyz: Frame 22 of 24
C       -2.4295592204    0.6735262196   -0.0501578779
C       -0.0150260603    1.0384294382    1.8508388811
C        0.7477316943    0.9623144442    3.8820833562
C        0.3138459356   -0.3275545410   -0.2225192407
C       -0.0745339137    1.0548509806    0.3381259205
N       -3.3071889666   -0.0905074284    0.0674783121
N        1.0950521445    1.1249310549    2.5197514498
N       -1.1481882888    0.9054124859    2.6308665016
N       -0.6459802918    0.6485734020    3.9256432013
N       -1.3804738297    1.5034676246   -0.1889723135
O        1.4556762844    1.0677991321    4.8621557052
H       -0.0315086909   -1.1390682460    0.4226352651
H       -0.0849697816   -0.4568169243   -1.2305733264
H        1.4028538151   -0.3984202209   -0.2581529562
H        0.6723366350    1.7907447578    0.0329089832
H       -1.8880758018    0.2729157086    2.3253696509
H       -1.1701488485    1.1005818060    4.6702826021
H       -1.6047578757    2.4765569803   -0.0012141913
18   
Generated by ForceBalance from scan.xyz: Frame 23 of 24
C       -2.4411072543    0.6422614793   -0.0264537117
C       -0.0155378750    1.0372914430    1.8553346842
C        0.7574726046    0.9647113143    3.8829355323
C        0.3196839274   -0.3170031961   -0.2227714623
C       -0.0845405396    1.0526720413    0.3429253072
N       -3.3125097355   -0.1266092115    0.1055764631
N        1.0989279427    1.1156133486    2.5179133852
N       -1.1456183036    0.9197184633    2.6422269582
N       -0.6389441745    0.6656081071    3.9354619376
N       -1.4005063119    1.4798810838   -0.1780998164
O        1.4717746901    1.0684486281    4.8586186491
H       -0.2150373288   -1.1307752962    0.2746303003
H        0.1231289732   -0.3524619551   -1.2965708107
H        1.3859556748   -0.4691657829   -0.0439851076
H        0.6457239109    1.7990906093    0.0222374040
H       -1.8931935573    0.2924207760    2.3447104670
H       -1.1552792447    1.1253884702    4.6807568459
H       -1.6334108364    2.4536440290   -0.0057983247
18   
Generated by ForceBalance from scan.xyz: Frame 24 of 24
C       -2.4517889619    0.6222376756    0.0015899864
C       -0.0158142324    1.0361692862    1.8610847532
C        0.7655830835    0.9806636249    3.8864645714
C        0.3237338672   -0.3120431724   -0.2270364226
C       -0.0903510089    1.0474300404    0.3491376070
N       -3.3227376315   -0.1438804746    0.1515501014
N        1.1008688898    1.1230697435    2.5191426211
N       -1.1418840285    0.9191465658    2.6532073703
N       -0.6296344853    0.6771337568    3.9462418870
N       -1.4138428476    1.4593253250   -0.1699919516
O        1.4832580851    1.0937410079    4.8586980838
H       -0.3636974359   -1.1024524837    0.0879941392
H        0.3265946403   -0.2641639095   -1.3185671534
H        1.3248653070   -0.5617703926    0.1291073186
H        0.6206156370    1.8045670939    0.0106206882
H       -1.8900038741    0.2889651126    2.3633624269
H       -1.1450806545    1.1405723257    4.6899105973
H       -1.6495258371    2.4347216596   -0.0112053865
