46   

C       -4.9409676553   -4.3065404436   -2.6851092346
C       -5.6869688299   -3.1477765503   -2.3922359339
C       -3.6480601687   -4.4700465725   -2.1590518082
C       -0.7757914352   -4.1999109367   -0.5927182578
C       -5.1437403810   -2.1410666776   -1.5758015536
C        0.3246245865   -3.8056558798    0.1911277317
C       -0.7829245275   -1.7183324950    0.7383856428
C       -3.1350434616   -3.4561367891   -1.3494473049
C       -1.8678350034   -3.3365384123   -0.6677813425
C       -3.8590705303   -2.3095952282   -1.0635263867
C       -1.8764397035   -2.1207677304   -0.0141409197
C        0.3250139542   -2.5697648000    0.8721264238
C       -0.1084061260   -3.1251394207    4.9941236752
C        0.2579546895   -2.4908658047    3.8338772789
C       -1.3307651384   -4.0965065751    5.1166006759
C        0.2140380738   -3.4588264843    7.4051090707
C       -1.0977978844   -1.5097518388    6.5935624919
C       -1.1627111641   -4.1484816278    7.5606240094
C       -2.3818547359   -2.3631720694    6.4366642640
C        0.1504882287   -2.3813501929    6.2989383924
C        1.4290192047   -2.8409161203    2.9444572364
N       -3.0943101778   -1.4705019818   -0.2419465153
N       -2.0068178565   -3.7968353462    6.3989452644
O        1.3855977684   -2.1891722619    1.6615561948
F       -0.2992025690   -1.2719667731    3.6366590596
H       -5.3674663447   -5.0755355652   -3.3187712764
H       -6.6852421687   -3.0297886916   -2.7985684410
H       -3.0646446918   -5.3563394810   -2.3752020243
H       -0.7811417661   -5.1467809695   -1.1187326711
H       -5.7097955940   -1.2474672692   -1.3452799251
H        1.1883636650   -4.4528591971    0.2733700609
H       -0.7919375951   -0.7588648246    1.2368037051
H       -2.0169345802   -3.9399221315    4.2769238814
H       -0.9930613198   -5.1377887733    5.0923532995
H        0.5126713540   -3.0243882371    8.3641732670
H        0.9685141920   -4.2002850103    7.1251500302
H       -1.1568396683   -0.6398593222    5.9330222375
H       -1.0280384781   -1.1321314929    7.6183348636
H       -1.0365135148   -5.2325370918    7.6466747146
H       -1.6532462962   -3.7956481712    8.4744851196
H       -3.0795736529   -2.1529350745    7.2538253816
H       -2.8845041170   -2.1000962458    5.4988208467
H        1.0699844812   -1.7875276606    6.2648380796
H        1.4529016315   -3.9255410529    2.8025394137
H        2.3538088444   -2.5592749981    3.4559480503
H       -3.3682918825   -0.5696426562    0.1320145361
46   

C       -5.0752423224   -4.2310094605   -2.3753564368
C       -5.7892045257   -3.0631087133   -2.0418915762
C       -3.7662553571   -4.4217648174   -1.9013934233
C       -0.8259334477   -4.2099439849   -0.4656531567
C       -5.1985337490   -2.0755854859   -1.2347604333
C        0.3185910393   -3.8366879656    0.2617085427
C       -0.7389774262   -1.7495346420    0.9045251073
C       -3.2058113322   -3.4260176563   -1.1007720649
C       -1.9095808436   -3.3333428103   -0.4729482035
C       -3.8990314923   -2.2721201520   -0.7721439036
C       -1.8724098283   -2.1272346132    0.1985522973
C        0.3677983129   -2.6109257915    0.9571804853
C       -0.0444380143   -3.0815836873    4.9806327521
C        0.4110045791   -2.4188457199    3.8819365255
C       -1.1677434850   -4.1601487085    4.9258018603
C       -0.0623066715   -3.4044489745    7.4161893167
C       -1.4191178138   -1.5815269064    6.4060239823
C       -1.3748409754   -4.2222564718    7.3659497164
C       -2.5750011911   -2.5525933950    6.0592228325
C       -0.0625312985   -2.3267730019    6.3077823358
C        1.5446932858   -2.8426310824    2.9861214424
N       -3.0889435247   -1.4564648298    0.0299150306
N       -2.0603418468   -3.9422958341    6.0864705944
O        1.4805640369   -2.2502050994    1.6777661669
F        0.1379362730   -1.0911252551    3.8280256332
H       -5.5384297174   -4.9855881750   -3.0005821283
H       -6.7994685300   -2.9232719031   -2.4097868462
H       -3.2063020200   -5.3146495572   -2.1502418023
H       -0.8684154457   -5.1487547516   -1.0043512988
H       -5.7397011256   -1.1749027145   -0.9741584908
H        1.1805598199   -4.4911150231    0.2873149727
H       -0.7102002224   -0.7996650821    1.4206135284
H       -1.7301104537   -4.0650513124    3.9901430837
H       -0.7314267737   -5.1638375725    4.9596153722
H        0.0475142898   -2.9540993984    8.4075603315
H        0.7924945045   -4.0684737776    7.2550111843
H       -1.4625097941   -0.7146258542    5.7404705662
H       -1.5412075290   -1.2102920178    7.4282622899
H       -1.1615443586   -5.2901977734    7.4778055566
H       -2.0299291138   -3.9236936703    8.1917714191
H       -3.4059858408   -2.4185486137    6.7593674607
H       -2.9514212564   -2.3299363649    5.0541778066
H        0.7912020802   -1.6488648215    6.4136669181
H        1.5416824427   -3.9331917753    2.8967992963
H        2.4888323350   -2.5561264077    3.4581923820
H       -3.3303474435   -0.5521068443    0.4176109863
46   

C       -5.2527828815   -4.2820857584   -1.5872358655
C       -5.8932074503   -3.0759274946   -1.2408875666
C       -3.9043929891   -4.4901885219   -1.2526489697
C       -0.8220729274   -4.3069761424   -0.1639857430
C       -5.1891182907   -2.0673152937   -0.5605104427
C        0.4036453589   -3.9419125574    0.4187854878
C       -0.5125530749   -1.7868648146    1.0577399757
C       -3.2314156921   -3.4730876473   -0.5757868963
C       -1.8721917161   -3.3930155020   -0.1007208116
C       -3.8513578689   -2.2816258048   -0.2355347750
C       -1.7262139537   -2.1567556979    0.4970942133
C        0.5635980773   -2.6887918195    1.0415864282
C        0.0453360488   -3.0035219940    4.7951685011
C        0.6983427582   -2.2921703824    3.8500364341
C       -0.9530312085   -4.1334364092    4.4228087182
C       -0.6006126221   -3.4231542787    7.1327380884
C       -1.7175089299   -1.6167579003    5.8309216406
C       -1.8141382565   -4.2847245349    6.7119569492
C       -2.6900221649   -2.6218375629    5.1616158605
C       -0.3532285269   -2.3057664980    6.0936405116
C        1.8570660085   -2.7497179995    3.0145357284
N       -2.9339022182   -1.4534890578    0.4261192431
N       -2.1369636669   -3.9905485843    5.3000790330
O        1.7536877785   -2.3501940895    1.6363768165
F        0.6320108160   -0.9402525448    3.9554464946
H       -5.8031189383   -5.0532417642   -2.1137492453
H       -6.9347177710   -2.9232634464   -1.5003869389
H       -3.3995790540   -5.4125401613   -1.5119102601
H       -0.9511872693   -5.2689880966   -0.6447260212
H       -5.6735747226   -1.1375357577   -0.2908551801
H        1.2427735496   -4.6254769954    0.3921838512
H       -0.3981346156   -0.8159245336    1.5206280213
H       -1.2482373039   -4.0401501091    3.3712510222
H       -0.4866625358   -5.1144756260    4.5600187646
H       -0.7778823589   -3.0071378254    8.1293007302
H        0.2950423909   -4.0496202114    7.1870859113
H       -1.6136082298   -0.7346567220    5.1921640524
H       -2.1304851521   -1.2808301643    6.7870707074
H       -1.5944666437   -5.3472970018    6.8574176836
H       -2.6808820883   -4.0339037867    7.3333045571
H       -3.6852268709   -2.5437585498    5.6111317516
H       -2.7895042087   -2.3826162520    4.0962797205
H        0.4094434535   -1.6029472123    6.4458109751
H        1.9451233243   -3.8384263405    3.0785395903
H        2.7741959931   -2.3224628083    3.4304587740
H       -3.1038869534   -0.5207013678    0.7830920187
46   

C       -5.3165419581   -4.1690952387   -1.1885271044
C       -5.9034922185   -2.9261233176   -0.8797297224
C       -3.9640339157   -4.4069616036   -0.8932682222
C       -0.8397323063   -4.2791902994    0.0705510724
C       -5.1416594854   -1.9107240948   -0.2757483320
C        0.4170195618   -3.9326364442    0.5948209666
C       -0.4025730612   -1.7196869740    1.1655040282
C       -3.2331002779   -3.3820286268   -0.2927941887
C       -1.8553383598   -3.3268072898    0.1281504029
C       -3.8003853994   -2.1552030308    0.0114789880
C       -1.6465757520   -2.0703166738    0.6618416246
C        0.6398409987   -2.6606854284    1.1567314201
C        0.0723572129   -2.9022612551    4.7863202172
C        0.8234201134   -2.1882043054    3.9294956839
C       -0.7448597660   -4.1296113697    4.3217175223
C       -0.8774490196   -3.3053237686    7.0211065858
C       -1.9212002939   -1.6472401356    5.4738247651
C       -1.9308603230   -4.2884382936    6.4609535479
C       -2.6993955112   -2.7617853486    4.7248996049
C       -0.5675284350   -2.2039145037    5.9822684524
C        1.9716149692   -2.6812360186    3.1053909848
N       -2.8320346017   -1.3292453608    0.5995441372
N       -2.0566793762   -4.0691123901    5.0049961219
O        1.8554813527   -2.3454961690    1.7106855185
F        0.8218491796   -0.8399615280    4.0904653477
H       -5.9112234246   -4.9457425767   -1.6553980970
H       -6.9484686554   -2.7505025113   -1.1089791408
H       -3.4998139025   -5.3578242153   -1.1239313457
H       -1.0187404442   -5.2569032906   -0.3599138985
H       -5.5851027975   -0.9528832816   -0.0354038843
H        1.2303601885   -4.6469012627    0.5738549462
H       -0.2390474438   -0.7356860015    1.5843118307
H       -0.8867857162   -4.0987374985    3.2358354251
H       -0.2192965905   -5.0566332454    4.5729350570
H       -1.2420157940   -2.8758767807    7.9593117114
H        0.0495628366   -3.8446636178    7.2391024240
H       -1.7777877742   -0.7940018958    4.8037159439
H       -2.5038533375   -1.2998039836    6.3325333182
H       -1.6430820980   -5.3207891491    6.6846179653
H       -2.9013940682   -4.1016214943    6.9334683964
H       -3.7509850973   -2.7601762824    5.0294462474
H       -2.6688044881   -2.5707531863    3.6455611972
H        0.0709111113   -1.4264203101    6.4151894252
H        2.0643298257   -3.7655676497    3.2178565179
H        2.8921841237   -2.2338954181    3.4916630652
H       -2.9564120946   -0.3736285810    0.9123235338
46   

C       -5.3346101054   -4.0738607109   -0.9887881680
C       -5.8842914710   -2.8134070884   -0.6823409946
C       -3.9799234946   -4.3384494105   -0.7283027396
C       -0.8284692054   -4.2703428143    0.1490597618
C       -5.0829282809   -1.8073917847   -0.1148729520
C        0.4472129213   -3.9493320361    0.6432629491
C       -0.3064450379   -1.7112384059    1.2072057326
C       -3.2091749193   -3.3220601832   -0.1641677389
C       -1.8196917107   -3.2934201502    0.2192204098
C       -3.7399650651   -2.0786409838    0.1385625639
C       -1.5685358417   -2.0361221479    0.7322065411
C        0.7114447847   -2.6789121251    1.1908537826
C        0.0908095355   -2.8309921465    4.7378695807
C        0.9350982890   -2.1521042421    3.9520650036
C       -0.5806171267   -4.1446485638    4.2934376684
C       -1.0129935939   -3.1477643944    6.9125414614
C       -2.0371080244   -1.7016095950    5.1482599351
C       -1.9153926444   -4.2671803967    6.3458360971
C       -2.6727593156   -2.9352862552    4.4527723365
C       -0.7006884252   -2.1026985867    5.8184530277
C        2.0568476512   -2.7030735235    3.1317737339
N       -2.7375811585   -1.2679740188    0.6897421075
N       -1.9426277221   -4.1565884097    4.8724867407
O        1.9413572694   -2.3937482195    1.7300189315
F        0.9989337432   -0.8076887306    4.1294275108
H       -5.9598019589   -4.8434011869   -1.4267249932
H       -6.9311360288   -2.6171596313   -0.8848843149
H       -3.5442701379   -5.3032323661   -0.9569942825
H       -1.0407171825   -5.2483312748   -0.2654274705
H       -5.4978264202   -0.8364001860    0.1237141114
H        1.2416585689   -4.6843211257    0.6150207056
H       -0.1111726007   -0.7280736110    1.6142628692
H       -0.6399694729   -4.1896133091    3.2013690264
H       -0.0036206215   -5.0067370911    4.6435330986
H       -1.5032041125   -2.6846761103    7.7743881945
H       -0.0681294247   -3.5784473969    7.2583840572
H       -1.8841539690   -0.9092466767    4.4087783750
H       -2.7167808554   -1.3168031794    5.9147148389
H       -1.5458774250   -5.2477968141    6.6630339565
H       -2.9344405066   -4.1532335711    6.7311796017
H       -3.7364556642   -3.0039634273    4.7027633292
H       -2.5976800313   -2.8253045410    3.3647476059
H       -0.1696295807   -1.2436944106    6.2417644052
H        2.1141706294   -3.7872245491    3.2666406515
H        2.9957478694   -2.2802919710    3.5012467664
H       -2.8311237320   -0.3052720913    0.9915642979
46   

C       -5.3439044014   -4.0079794033   -0.9207653399
C       -5.8820578369   -2.7463088574   -0.5993382310
C       -3.9889992232   -4.2842267090   -0.6737636524
C       -0.8313258430   -4.2474208481    0.1828295105
C       -5.0689902772   -1.7508992726   -0.0297786748
C        0.4481422395   -3.9429691171    0.6778840432
C       -0.2854229117   -1.7055743752    1.2706232920
C       -3.2063640975   -3.2780282880   -0.1075593231
C       -1.8141971472   -3.2632571942    0.2670669804
C       -3.7259997935   -2.0337904459    0.2106609930
C       -1.5507557923   -2.0134933108    0.7924447004
C        0.7235911570   -2.6822564677    1.2426099403
C        0.0198144401   -2.7816915830    4.7021298551
C        0.9684981790   -2.1428781310    4.0141347351
C       -0.5457466590   -4.1485617378    4.2871496063
C       -1.1921071950   -3.0189562466    6.8238966761
C       -2.1899017527   -1.7660598888    4.9013798568
C       -1.9620170808   -4.2462329794    6.2856444519
C       -2.7250593091   -3.0863266446    4.2861266957
C       -0.8789454056   -2.0318163838    5.6782256622
C        2.0605530756   -2.7410842757    3.1884881942
N       -2.7140654858   -1.2359031496    0.7631269260
N       -1.9287107334   -4.2231997578    4.8082590609
O        1.9546919740   -2.4166538855    1.7891526443
F        1.1115555743   -0.8120644548    4.2378590002
H       -5.9782475787   -4.7694748047   -1.3596843309
H       -6.9291250907   -2.5410405551   -0.7916829857
H       -3.5624073840   -5.2503794129   -0.9135911768
H       -1.0531312339   -5.2191854691   -0.2412624574
H       -5.4752486470   -0.7792191777    0.2206239974
H        1.2357731036   -4.6848509523    0.6401767382
H       -0.0813796749   -0.7298959641    1.6912418519
H       -0.5530809526   -4.2435882280    3.1973568912
H        0.0662089430   -4.9564906110    4.7012077638
H       -1.7791699075   -2.5352059122    7.6105869301
H       -0.2468015429   -3.3464205207    7.2678176649
H       -2.0251302534   -1.0366760425    4.1020357536
H       -2.9340965942   -1.3493171329    5.5868528411
H       -1.5200681668   -5.1691592434    6.6752254238
H       -3.0037660460   -4.2072456615    6.6218390746
H       -3.7868877318   -3.2092866651    4.5229968556
H       -2.6352661607   -3.0496351532    3.1948622091
H       -0.4344154368   -1.1111215703    6.0695613336
H        2.0701054298   -3.8275301021    3.3156945261
H        3.0191673365   -2.3646797396    3.5575237690
H       -2.7983173348   -0.2751080254    1.0737523798
46   

C       -5.3048108593   -3.9152652768   -0.9111248803
C       -5.8512771023   -2.6652632237   -0.5596507114
C       -3.9497539217   -4.1909177351   -0.6641159741
C       -0.7962418271   -4.1594214862    0.2076178358
C       -5.0465767851   -1.6812362699    0.0407739244
C        0.4795425171   -3.8612565842    0.7157716831
C       -0.2702484330   -1.6470170585    1.3719679008
C       -3.1753855823   -3.1959691799   -0.0672435576
C       -1.7851229921   -3.1836661501    0.3149153628
C       -3.7034643711   -1.9635953638    0.2815008356
C       -1.5313699826   -1.9476794092    0.8769476678
C        0.7449946868   -2.6155335680    1.3179181265
C       -0.0028377117   -2.7530021831    4.6956960894
C        1.0371959478   -2.1471676133    4.1228195099
C       -0.5016654952   -4.1467393051    4.2982092098
C       -1.2636946412   -2.9513019436    6.7881258715
C       -2.2597000106   -1.8279401640    4.7872416048
C       -1.9386883954   -4.2464331574    6.2811504486
C       -2.7335777481   -3.1971518589    4.2337944018
C       -0.9620728358   -2.0001955511    5.6098282250
C        2.0892857727   -2.7516442303    3.2521537754
N       -2.6989428075   -1.1758247459    0.8614253748
N       -1.8864561529   -4.2719137086    4.8039682294
O        1.9730294041   -2.3554616530    1.8730243250
F        1.2615893149   -0.8487559376    4.4453507315
H       -5.9328586925   -4.6681112761   -1.3734672718
H       -6.8982959962   -2.4602418798   -0.7526748136
H       -3.5169837900   -5.1482635048   -0.9271318790
H       -1.0105445762   -5.1201141678   -0.2446957003
H       -5.4594003875   -0.7185905192    0.3142968491
H        1.2719048686   -4.5968524174    0.6588840945
H       -0.0732206645   -0.6838224365    1.8236143738
H       -0.4908369727   -4.2613736003    3.2105917490
H        0.1385878277   -4.9198259645    4.7353717689
H       -1.9101242952   -2.4663197166    7.5260090937
H       -0.3211919956   -3.2015238624    7.2851171577
H       -2.0950642400   -1.1392685333    3.9528248786
H       -3.0377191967   -1.3990302784    5.4260121586
H       -1.4374503653   -5.1226096643    6.7054682148
H       -2.9844643132   -4.2710710314    6.6058398341
H       -3.7875314468   -3.3586320587    4.4824675177
H       -2.6502280338   -3.2050183163    3.1416704873
H       -0.5754867233   -1.0420647735    5.9708690149
H        2.0568035865   -3.8423483541    3.3280335476
H        3.0689702694   -2.4333238951    3.6205702925
H       -2.7898675882   -0.2234318538    1.1951978581
46   

C       -5.2926931915   -3.9059037190   -0.8972087750
C       -5.8468741334   -2.6598648558   -0.5438342078
C       -3.9377399133   -4.1763058124   -0.6436814591
C       -0.7880843619   -4.1319967797    0.2415292737
C       -5.0501167617   -1.6747231335    0.0653025591
C        0.4851010134   -3.8281870340    0.7528213159
C       -0.2796395412   -1.6228479430    1.4213890780
C       -3.1712547025   -3.1802528649   -0.0383125608
C       -1.7827655303   -3.1624659520    0.3505462934
C       -3.7070840774   -1.9519651056    0.3127074855
C       -1.5377634174   -1.9278583548    0.9198499330
C        0.7420379632   -2.5833318283    1.3611929772
C        0.0000738731   -2.7347263992    4.6686878108
C        1.1155808095   -2.1791700369    4.1964196801
C       -0.4690687953   -4.1504685371    4.3220834429
C       -1.2582467670   -2.8635043576    6.7634172345
C       -2.2829208728   -1.8590438438    4.7172903386
C       -1.8934308595   -4.2005932012    6.3157497502
C       -2.7250407784   -3.2623754043    4.2287394953
C       -0.9801519966   -1.9605570552    5.5421774543
C        2.1185481442   -2.7777118385    3.2653378499
N       -2.7093990167   -1.1619246861    0.9012908768
N       -1.8478560714   -4.2888754483    4.8403430481
O        1.9691636518   -2.3125225994    1.9122085050
F        1.4221035237   -0.9269632243    4.6176315701
H       -5.9146996851   -4.6596113646   -1.3663158576
H       -6.8936615255   -2.4587380588   -0.7422694314
H       -3.4991866172   -5.1305114766   -0.9085309632
H       -0.9956237100   -5.0915584688   -0.2163539925
H       -5.4689632134   -0.7150390259    0.3401060777
H        1.2823322630   -4.5581045234    0.6913854390
H       -0.0884471957   -0.6618230963    1.8800300240
H       -0.4620249580   -4.3007966306    3.2387880569
H        0.1909176988   -4.8940183243    4.7806587466
H       -1.9216537190   -2.3631510333    7.4755040641
H       -0.3112291791   -3.0625558756    7.2748501567
H       -2.1369997640   -1.2048147457    3.8527856679
H       -3.0699294762   -1.4201521544    5.3380347666
H       -1.3614418429   -5.0410752386    6.7735665631
H       -2.9359477517   -4.2454268868    6.6485833316
H       -3.7729362084   -3.4388983010    4.4923507301
H       -2.6484130449   -3.3163858251    3.1374260884
H       -0.6209027619   -0.9755826722    5.8556305292
H        2.0519508722   -3.8691235556    3.2933513430
H        3.1201458613   -2.5089959255    3.6138630363
H       -2.8066690787   -0.2108021043    1.2368813007
46   

C       -5.2816649073   -3.9123627095   -0.9097231923
C       -5.8493142025   -2.6703768646   -0.5635877131
C       -3.9277948413   -4.1725300151   -0.6399682858
C       -0.7886131562   -4.1033820843    0.2810516836
C       -5.0671614850   -1.6790464205    0.0543478643
C        0.4770702751   -3.7886611208    0.8043294089
C       -0.3122383065   -1.5898996375    1.4653486090
C       -3.1759119226   -3.1705093369   -0.0260426214
C       -1.7920449062   -3.1418104291    0.3788462731
C       -3.7250446393   -1.9461076421    0.3176892046
C       -1.5628112823   -1.9050267431    0.9501009468
C        0.7180516055   -2.5408277629    1.4141803208
C       -0.0201056039   -2.7347197210    4.6488055514
C        1.1621831207   -2.2359145174    4.2843712894
C       -0.4793174351   -4.1647185064    4.3503376634
C       -1.2707498447   -2.7943384593    6.7471300944
C       -2.3190051537   -1.8812588892    4.6738952845
C       -1.8919065671   -4.1552453664    6.3528733298
C       -2.7443165653   -3.3054597505    4.2354105003
C       -1.0088652920   -1.9361818465    5.4903503587
C        2.1244424563   -2.7991456767    3.2889300793
N       -2.7401730262   -1.1481181980    0.9169510231
N       -1.8536713838   -4.2987522897    4.8811697905
O        1.9382947659   -2.2533199488    1.9716556255
F        1.5399105542   -1.0495964942    4.8219491339
H       -5.8924655038   -4.6707914556   -1.3859200062
H       -6.8951561676   -2.4771377245   -0.7745555798
H       -3.4791136384   -5.1235171961   -0.8993479838
H       -0.9836968823   -5.0646164219   -0.1788150562
H       -5.4964514262   -0.7223829969    0.3235515608
H        1.2809082577   -4.5117082799    0.7487257921
H       -0.1328447746   -0.6278017476    1.9263352845
H       -0.4779515693   -4.3474291598    3.2719030290
H        0.1906487625   -4.8881645071    4.8263235172
H       -1.9372638012   -2.2750333803    7.4425326978
H       -0.3194108368   -2.9624117806    7.2617669109
H       -2.1914006723   -1.2523471701    3.7886177144
H       -3.1069579489   -1.4341902925    5.2876080962
H       -1.3469876142   -4.9714782233    6.8385390596
H       -2.9318585492   -4.2003547565    6.6935589209
H       -3.7898119862   -3.4852982469    4.5062021226
H       -2.6674936769   -3.3960975671    3.1464499325
H       -0.6606684775   -0.9344928670    5.7603694863
H        2.0367348320   -3.8890708646    3.2595928636
H        3.1420397133   -2.5683624409    3.6177914883
H       -2.8487856069   -0.1973892055    1.2501542984
46   

C       -5.2837550175   -3.9244850401   -0.9305461855
C       -5.8546830006   -2.6759925398   -0.6145396480
C       -3.9355087167   -4.1830786470   -0.6323533447
C       -0.8132238910   -4.1055633146    0.3453285059
C       -5.0813300786   -1.6763939046    0.0010896281
C        0.4437222125   -3.7846687554    0.8858437831
C       -0.3518171120   -1.5737000932    1.4956544913
C       -3.1923270978   -3.1728499950   -0.0212054821
C       -1.8158584030   -3.1403937154    0.4083646157
C       -3.7446457998   -1.9418342447    0.2923685590
C       -1.5938112207   -1.8947705183    0.9627934606
C        0.6770919716   -2.5266769372    1.4790293648
C       -0.0617450285   -2.7871077836    4.6355553191
C        1.1737570683   -2.3454640732    4.3797326362
C       -0.5236630762   -4.2301454427    4.4004114869
C       -1.3163802585   -2.7567282779    6.7299928859
C       -2.3705669212   -1.9353584523    4.6256372553
C       -1.9441685620   -4.1306816076    6.3943338564
C       -2.7854158428   -3.3758232886    4.2353366398
C       -1.0564483101   -1.9539283301    5.4362887298
C        2.1123585937   -2.8465635925    3.3271155816
N       -2.7686830069   -1.1360316196    0.8955982398
N       -1.9003468453   -4.3404610864    4.9304398361
O        1.8880513895   -2.2253384579    2.0499976673
F        1.5987227553   -1.2362565670    5.0340514428
H       -5.8877458522   -4.6891257689   -1.4055044417
H       -6.8961932521   -2.4840669621   -0.8471087960
H       -3.4845553476   -5.1390274471   -0.8684678048
H       -1.0022913957   -5.0737794037   -0.1022329538
H       -5.5131979045   -0.7146786711    0.2472369634
H        1.2464155175   -4.5103098924    0.8540605649
H       -0.1782304182   -0.6046685079    1.9439779440
H       -0.5180079422   -4.4590204065    3.3306706980
H        0.1446429025   -4.9329054479    4.9087027705
H       -1.9781969430   -2.2067793543    7.4060282921
H       -0.3634149696   -2.9063880303    7.2474353263
H       -2.2567111715   -1.3318621513    3.7217243221
H       -3.1579069754   -1.4768425536    5.2317071970
H       -1.4069430739   -4.9273973080    6.9193952951
H       -2.9861290282   -4.1538620602    6.7310453159
H       -3.8345694936   -3.5486145409    4.4963687489
H       -2.6909139595   -3.5064928687    3.1517467646
H       -0.7089771737   -0.9404182583    5.6597164744
H        2.0253398174   -3.9335189636    3.2404009800
H        3.1380342729   -2.6306249100    3.6406632455
H       -2.8816395230   -0.1801975898    1.2123546661
46   

C       -5.3871596423   -3.6722531359   -0.7827226644
C       -5.8392920211   -2.3405413589   -0.7009315394
C       -4.0709198125   -3.9976545287   -0.4148558427
C       -0.9622558352   -4.0382891131    0.6067321420
C       -4.9782622551   -1.3241358973   -0.2516182540
C        0.3157522683   -3.7453293422    1.1117884541
C       -0.2685228559   -1.3973713846    1.3083576852
C       -3.2388236913   -2.9687247137    0.0274230487
C       -1.8678498945   -2.9883040518    0.4750172730
C       -3.6739745034   -1.6561865720    0.1101656737
C       -1.5311859558   -1.6903019599    0.8079376132
C        0.6658325436   -2.4289386004    1.4813433601
C       -0.0489452900   -2.8886531986    4.5496678335
C        1.1376024892   -2.3018783937    4.3357611866
C       -0.2429841769   -4.4105191697    4.6244662034
C       -1.3987058420   -2.6503477978    6.5703414438
C       -2.4742290668   -2.4927991192    4.3307859588
C       -1.7582492765   -4.1554411411    6.5300165816
C       -2.6087557037   -4.0320554069    4.2501157151
C       -1.2164952236   -2.1039642098    5.1368512538
C        2.1538400114   -2.7060121916    3.3109571513
N       -2.6294877377   -0.8506540355    0.5861320656
N       -1.6055778093   -4.6558185835    5.1454090365
O        1.8978250832   -2.1372497294    2.0146879368
F        1.3713501040   -1.1050584765    4.9292261496
H       -6.0582026561   -4.4490578964   -1.1311124179
H       -6.8566969945   -2.0969952130   -0.9860538402
H       -3.7110148049   -5.0175160560   -0.4720971869
H       -1.2399602173   -5.0485870078    0.3317873354
H       -5.3186768728   -0.2985625917   -0.1855181681
H        1.0437619456   -4.5384248006    1.2221749774
H       -0.0074746318   -0.3852068369    1.5863516726
H       -0.1390824433   -4.8512489220    3.6281720090
H        0.5099290160   -4.8593824283    5.2808268899
H       -2.1812895713   -2.1006472487    7.1022127167
H       -0.4630422799   -2.5116061490    7.1213336270
H       -2.4317874935   -2.0793600086    3.3210709083
H       -3.3570826721   -2.0702994825    4.8201672057
H       -1.1161018743   -4.7130320479    7.2198394437
H       -2.7952164233   -4.2969195259    6.8529297285
H       -3.6237441829   -4.3348968123    4.5275053015
H       -2.4360213880   -4.3614285382    3.2197143451
H       -1.0601602361   -1.0204472594    5.1369821489
H        2.1953646438   -3.7966714980    3.2418272374
H        3.1390206826   -2.3683885270    3.6460811728
H       -2.6569971486    0.1501416279    0.7423358831
46   

C       -5.3487987652   -3.5522992172   -0.8198813220
C       -5.7943736060   -2.2169750061   -0.7658345616
C       -4.0373072450   -3.8779399729   -0.4353726153
C       -0.9389688989   -3.9166801272    0.6196819943
C       -4.9316001576   -1.1972469175   -0.3275556891
C        0.3357088161   -3.6217382128    1.1326166579
C       -0.2361897079   -1.2668987716    1.2767367295
C       -3.2031071377   -2.8455592793   -0.0049354472
C       -1.8361689545   -2.8641184096    0.4556308888
C       -3.6320829629   -1.5295652314    0.0509979163
C       -1.4957330246   -1.5619823281    0.7690824227
C        0.6916888532   -2.2992335110    1.4791560970
C        0.0430136233   -2.9649977179    4.4651010520
C        1.2445504150   -2.3685617973    4.3412238226
C       -0.1409639314   -4.4843335509    4.6421720108
C       -1.2977050304   -2.5470893287    6.4729541278
C       -2.3989350211   -2.6759906350    4.2454101426
C       -1.5161095814   -4.0730391460    6.6168742937
C       -2.5457671781   -4.2052454469    4.4129033292
C       -1.1446664590   -2.1643005340    4.9844302338
C        2.2463602015   -2.6425647212    3.2573948767
N       -2.5877825292   -0.7211038371    0.5225417949
N       -1.4563012376   -4.7069052320    5.2802689523
O        1.9217002097   -1.9954558557    2.0136508192
F        1.4699725362   -1.2379064765    5.0556321657
H       -6.0213659038   -4.3316413984   -1.1595771864
H       -6.8081085893   -1.9732038808   -1.0636100131
H       -3.6827477123   -4.9006263776   -0.4709369644
H       -1.2205997198   -4.9305829967    0.3627272914
H       -5.2671725967   -0.1689463992   -0.2822978719
H        1.0550741914   -4.4191528536    1.2640570804
H        0.0276615223   -0.2508282466    1.5370059523
H       -0.1075246797   -4.9801834582    3.6667724311
H        0.6625621712   -4.8933264842    5.2636792998
H       -2.1431903316   -2.0117198738    6.9158253786
H       -0.3965404276   -2.2541220904    7.0206862827
H       -2.3315715331   -2.4349473660    3.1832560670
H       -3.2894660975   -2.1753760834    4.6373502896
H       -0.7489966686   -4.4979803844    7.2728770816
H       -2.4906599837   -4.2671811125    7.0771968348
H       -3.5209596106   -4.4406241516    4.8518610739
H       -2.4976183719   -4.6898077045    3.4317227303
H       -1.0211423503   -1.0841200788    4.8528363201
H        2.3410439980   -3.7220029379    3.1099046861
H        3.2235569146   -2.2778852540    3.5875438843
H       -2.6127978456    0.2819335264    0.6637685061
46   

C       -5.2821475580   -3.5837970473   -0.8932658831
C       -5.7611966490   -2.2665742648   -0.7520471429
C       -3.9590343224   -3.8984042469   -0.5405451707
C       -0.8528973658   -3.9234853410    0.4941475735
C       -4.9207099738   -1.2541322541   -0.2572101867
C        0.4154791626   -3.6301605750    1.0242542734
C       -0.2139723687   -1.3036077213    1.3147541955
C       -3.1472091926   -2.8734299094   -0.0531595896
C       -1.7765774061   -2.8854096045    0.3971047363
C       -3.6095265021   -1.5753966466    0.0895190953
C       -1.4680063375   -1.5978012799    0.7927450409
C        0.7405774072   -2.3226648236    1.4520055902
C        0.1448060369   -3.2150920757    4.3356657125
C        1.3819845824   -2.6619353565    4.3040454024
C       -0.1195148636   -4.7207473233    4.5593526722
C       -1.1479501393   -2.5899341448    6.3459334722
C       -2.2935420534   -2.9268054815    4.1660177691
C       -1.2020125125   -4.1092632780    6.6438897388
C       -2.5395114166   -4.3797558485    4.6286100432
C       -1.0169497606   -2.3558863656    4.8225406807
C        2.3548340569   -2.7773256081    3.1627306519
N       -2.5827314430   -0.7714949617    0.6053071013
N       -1.3506602560   -4.8523926225    5.3704569763
O        1.9632397957   -2.0171207295    2.0042965025
F        1.6547800111   -1.6660010034    5.1829601148
H       -5.9380094467   -4.3577908782   -1.2752510105
H       -6.7837245939   -2.0313109711   -1.0256627953
H       -3.5791900043   -4.9074947215   -0.6420270466
H       -1.1109433837   -4.9263077817    0.1762065690
H       -5.2823637246   -0.2399971647   -0.1441256871
H        1.1522020798   -4.4181949971    1.1055529969
H        0.0249147274   -0.2994100078    1.6375115506
H       -0.2418819037   -5.2263480044    3.5958104063
H        0.7288282385   -5.1769019503    5.0803328495
H       -2.0658929464   -2.1106726568    6.7002147613
H       -0.3114734739   -2.1420556426    6.8905817551
H       -2.1664469651   -2.9132551573    3.0827388259
H       -3.1677130515   -2.3122454736    4.4011885216
H       -0.2748003674   -4.4198219194    7.1376629057
H       -2.0295402622   -4.3293908464    7.3263696869
H       -3.4148940488   -4.4167656632    5.2857615193
H       -2.7437469674   -5.0188793222    3.7631657914
H       -0.8859967028   -1.2973469963    4.5733352563
H        2.4872602817   -3.8308323077    2.9013999526
H        3.3283073132   -2.4073175287    3.4980118814
H       -2.6328899054    0.2194300264    0.8105398582
46   

C       -5.2865236834   -3.5760585002   -1.0034682355
C       -5.7783162962   -2.2597425797   -0.9034581784
C       -3.9727490234   -3.8741853019   -0.6042941993
C       -0.8956354733   -3.8534262434    0.5175415937
C       -4.9605902684   -1.2320406418   -0.4021257791
C        0.3547067120   -3.5399814432    1.0790737653
C       -0.3055048976   -1.2163358615    1.3159935840
C       -3.1830694471   -2.8340155981   -0.1126214379
C       -1.8262614882   -2.8264757306    0.3782121813
C       -3.6590554530   -1.5372992516   -0.0079763738
C       -1.5409785829   -1.5306414253    0.7626539661
C        0.6562356304   -2.2217177416    1.4981072576
C        0.1957865204   -3.3377357618    4.3235469507
C        1.4546742719   -2.8055595559    4.3260844920
C       -0.1172228022   -4.8279850318    4.6154089422
C       -1.1071142796   -2.5863874711    6.2959046647
C       -2.2338515135   -2.9975199275    4.1246204637
C       -1.1787418424   -4.0888368806    6.6655732223
C       -2.5277934053   -4.4144471022    4.6655749986
C       -0.9473106562   -2.4291055341    4.7637835447
C        2.3655314123   -2.7264701691    3.1266233705
N       -2.6552130388   -0.7165362084    0.5258925733
N       -1.3524959416   -4.8866505418    5.4289838307
O        1.8582570845   -1.8793995921    2.0782734959
F        1.8097092694   -2.0207766518    5.3720095407
H       -5.9253736858   -4.3620665285   -1.3897168861
H       -6.7931885570   -2.0370148927   -1.2136353734
H       -3.5835079688   -4.8823917927   -0.6737967550
H       -1.1354362312   -4.8635681618    0.2085977272
H       -5.3322081605   -0.2185109671   -0.3201699750
H        1.0904006252   -4.3248093870    1.1896547221
H       -0.0859672137   -0.2040760754    1.6270333616
H       -0.2533160924   -5.3728087544    3.6754039174
H        0.7165745707   -5.2856075394    5.1582090143
H       -2.0289546113   -2.0849756296    6.6067222011
H       -0.2827425583   -2.1167836183    6.8400335043
H       -2.0940218589   -3.0484342597    3.0443682041
H       -3.0920242473   -2.3456670433    4.3140959961
H       -0.2487587180   -4.3896382064    7.1604576133
H       -1.9991412310   -4.2651909712    7.3689974898
H       -3.3997883724   -4.3852018229    5.3277022389
H       -2.7593603290   -5.0919846869    3.8371568834
H       -0.7849202348   -1.3871329416    4.4677853855
H        2.5620180794   -3.7334489140    2.7493373379
H        3.3277999680   -2.3189137962    3.4506047148
H       -2.7190056399    0.2775845040    0.7108196760
46   

C       -5.2716223832   -3.5855209479   -1.1292669082
C       -5.7811449830   -2.2737025143   -1.0654526288
C       -3.9683246291   -3.8621720393   -0.6831701161
C       -0.9278291526   -3.7866155689    0.5305481775
C       -4.9924170855   -1.2293810212   -0.5521117498
C        0.2982024488   -3.4522764912    1.1321195770
C       -0.4007952044   -1.1365077753    1.3265785432
C       -3.2071187062   -2.8055708460   -0.1817041005
C       -1.8674777069   -2.7746807347    0.3529183309
C       -3.7016173145   -1.5136539766   -0.1100228694
C       -1.6118738903   -1.4721612894    0.7334004552
C        0.5687329570   -2.1254502948    1.5545116326
C        0.2685136122   -3.4621642773    4.3326845992
C        1.5561510103   -2.9689588247    4.3254367370
C       -0.1162075126   -4.9284862906    4.6861904247
C       -0.9819584569   -2.5515149092    6.2499087453
C       -2.1483632500   -3.0221229264    4.1103668210
C       -1.1261576855   -4.0286775921    6.6987250433
C       -2.5043684976   -4.3933822062    4.7261532343
C       -0.8321652668   -2.4808899914    4.7107692866
C        2.3735513067   -2.6746544537    3.0857929940
N       -2.7265017625   -0.6744027022    0.4478800534
N       -1.3474944208   -4.8817520755    5.5068431782
O        1.7362518463   -1.7476287557    2.1869865302
F        2.1267887107   -2.6825773044    5.5191939365
H       -5.8887011514   -4.3847219042   -1.5237515883
H       -6.7875348122   -2.0674451929   -1.4124246638
H       -3.5659029142   -4.8667746710   -0.7240478621
H       -1.1441075780   -4.8027200622    0.2237111803
H       -5.3780642485   -0.2192888457   -0.4971952883
H        1.0296556625   -4.2354855352    1.2727342132
H       -0.2073618989   -0.1182274700    1.6352856580
H       -0.2851997215   -5.5054465325    3.7710830729
H        0.6963129500   -5.4027016396    5.2468134972
H       -1.8723031675   -1.9875974884    6.5448804353
H       -0.1249977581   -2.0987127606    6.7573699920
H       -2.0207012603   -3.1358188658    3.0336166207
H       -2.9733732904   -2.3214340688    4.2707158709
H       -0.2094204647   -4.3496941570    7.2056846914
H       -1.9499257666   -4.1272842904    7.4133442778
H       -3.3688340214   -4.2884893606    5.3904952315
H       -2.7745322820   -5.1010513532    3.9355061049
H       -0.6209070345   -1.4646982403    4.3614073564
H        2.6134997955   -3.6096373139    2.5737841938
H        3.3278091361   -2.2400065016    3.3979306628
H       -2.8083216992    0.3211394090    0.6173139433
