41

C      4.32562   -2.66164   -6.23230
C      5.04747   -1.84615   -8.33287
C      3.78136   -3.43151   -5.06635
C      6.27812   -4.94373    0.30876
C      5.02799   -5.76930   -0.02564
C      6.83595   -4.24960   -0.94140
C      3.95961   -4.91426   -0.72192
C      5.76439   -3.39679   -1.63568
C      4.51253   -4.22020   -1.97675
C      3.99371   -1.20427  -12.26316
C      3.12716   -0.17441  -10.09842
C      3.41810   -3.36610   -2.63333
C      3.83414   -1.35814  -10.74970
N      4.84501   -1.46609   -6.16057
N      5.26984   -0.99135   -7.37399
N      3.83028   -2.75703   -3.89496
O      3.33418   -4.56919   -5.22460
O      6.20559   -0.16569  -10.12469
S      4.31173   -3.35003   -7.83251
S      5.57697   -1.53228  -10.06364
H      7.04482   -5.58300    0.76196
H      6.01926   -4.18337    1.05893
H      5.30919   -6.60068   -0.68623
H      4.61319   -6.21843    0.88432
H      7.69841   -3.62604   -0.67889
H      7.20115   -5.01000   -1.64515
H      3.09516   -5.53423   -0.98938
H      3.59465   -4.15038   -0.01942
H      5.47678   -2.56750   -0.97173
H      6.17968   -2.94568   -2.54458
H      4.79434   -4.99692   -2.70036
H      4.54760   -0.29145  -12.50108
H      4.51822   -2.05598  -12.70815
H      3.00553   -1.13378  -12.72868
H      3.74333    0.72508  -10.18513
H      2.92222   -0.34821   -9.03927
H      2.17480    0.00724  -10.60736
H      3.11269   -2.55806   -1.95984
H      2.54005   -3.98389   -2.83893
H      3.34242   -2.30851  -10.51146
H      4.27188   -1.84447   -3.90676
