14   
Generated by ForceBalance from scan.xyz: Frame 1 of 24
C        0.2324109929   -0.3909316572    0.9671018079
C        1.6743164990   -0.8111536582    2.8587692611
C       -0.7116383938   -1.2251875957    1.5701611036
C        1.4421488693   -0.1857493134    1.6349668549
C        0.6536377317   -1.6351496909    3.3397838991
N       -0.5136778608   -1.8335518274    2.7485526142
O       -0.1955098138   -3.4903408146    5.0970102470
O        2.3522815187   -3.0517517573    4.5747712125
S        0.8199458441   -2.4145365469    5.0125477080
Cl       2.6634665672    0.8489027112    0.9369274104
H        0.0279457950    0.0856692107    0.0142219388
H        2.6113674987   -0.6933534022    3.3914081846
H       -1.6699760410   -1.4051388384    1.0872619394
H        2.7631049288   -3.3906691096    5.3927783850
14   
Generated by ForceBalance from scan.xyz: Frame 2 of 24
C        0.2161520666   -0.3650467473    0.9800020795
C        1.6770188101   -0.8919364220    2.8316863368
C       -0.7582377363   -1.1556068476    1.5943454133
C        1.4493672034   -0.2361447388    1.6221490608
C        0.6250701537   -1.6679020429    3.3249736742
N       -0.5663977544   -1.7926296704    2.7573684172
O       -0.0822511030   -3.7344346493    4.8949553445
O        2.3960107639   -2.8602437281    4.7004271540
S        0.7398714631   -2.5029916575    4.9735525914
Cl       2.7091740189    0.7415554949    0.9099435586
H        0.0167312009    0.1355664848    0.0384707287
H        2.6302739875   -0.8347663615    3.3430528529
H       -1.7362865759   -1.2752636470    1.1328785261
H        2.7611700513   -3.1753454272    5.5486368392
14   
Generated by ForceBalance from scan.xyz: Frame 3 of 24
C        0.2039840437   -0.3052240283    0.9876107664
C        1.6764794570   -0.9427538185    2.7973831521
C       -0.7963261187   -1.0596517801    1.6069886478
C        1.4540527006   -0.2514399915    1.6057113415
C        0.5986001063   -1.6758065926    3.2972615478
N       -0.6105933210   -1.7308549497    2.7504826973
O        0.0708204723   -3.9318534109    4.6606257622
O        2.3805071214   -2.6872498506    4.8138913178
S        0.6700371810   -2.5955620242    4.9007137904
Cl       2.7450374819    0.6803729656    0.8877164154
H        0.0102252554    0.2249484330    0.0612298483
H        2.6390490915   -0.9386119025    3.2930102933
H       -1.7887886021   -1.1200381679    1.1651805485
H        2.6902633760   -3.0178477943    5.6777682035
14   
Generated by ForceBalance from scan.xyz: Frame 4 of 24
C        0.1946991358   -0.3007597588    0.9994122972
C        1.6880695393   -1.0121454865    2.7643187867
C       -0.8210171418   -1.0124826304    1.6441057152
C        1.4629616071   -0.3060369606    1.5814793160
C        0.5931054763   -1.6967565195    3.2921449090
N       -0.6332643167   -1.6976558929    2.7785323010
O        0.2917132822   -4.0778863711    4.4967150227
O        2.3529385872   -2.5246010977    4.9502854460
S        0.6486996319   -2.6811103549    4.8547724636
Cl       2.7727483911    0.5728679963    0.8313643619
H       -0.0011038950    0.2423087089    0.0809810517
H        2.6605355669   -1.0470823976    3.2386494535
H       -1.8271016148   -1.0263821840    1.2302491473
H        2.6214820661   -2.8743514705    5.8201860117
14   
Generated by ForceBalance from scan.xyz: Frame 5 of 24
C        0.1909376081   -0.2700888822    1.0170883965
C        1.6894292543   -1.0712608070    2.7386112305
C       -0.8405765821   -0.9502330369    1.6700064105
C        1.4699893316   -0.3372743477    1.5722822620
C        0.5766555648   -1.7140470817    3.2798789248
N       -0.6588433835   -1.6608469070    2.7903818758
O        0.5320090336   -4.1842809472    4.3258904110
O        2.2696628335   -2.3805692891    5.0767660199
S        0.6265268881   -2.7742152380    4.7890867810
Cl       2.7986452287    0.5005852545    0.8088582313
H       -0.0002572753    0.2960070667    0.1116765034
H        2.6669050376   -1.1505166305    3.1975455030
H       -1.8540212034   -0.9167335557    1.2758689885
H        2.5218297025   -2.8102075821    5.9153984269
14   
Generated by ForceBalance from scan.xyz: Frame 6 of 24
C        0.1866710603   -0.2473365360    1.0376850978
C        1.6894730014   -1.1400032065    2.7079922767
C       -0.8574285465   -0.8942251179    1.7030146461
C        1.4755945332   -0.3777891866    1.5599410236
C        0.5615974893   -1.7385776901    3.2683618848
N       -0.6814477717   -1.6307717990    2.8087543456
O        0.8061614183   -4.2422147424    4.1893404825
O        2.1608239360   -2.2501011019    5.1913222886
S        0.6302360008   -2.8642372523    4.7242314564
Cl       2.8196317429    0.4156565159    0.7767560314
H       -0.0010792671    0.3407830134    0.1456742100
H        2.6713031070   -1.2655301558    3.1477496669
H       -1.8768695951   -0.8128544225    1.3321854230
H        2.4105224112   -2.7061804328    6.0167920898
14   
Generated by ForceBalance from scan.xyz: Frame 7 of 24
C        0.1807373457   -0.2240616065    1.0617802888
C        1.6885032740   -1.2217563486    2.6656775904
C       -0.8720623596   -0.8410859837    1.7399566830
C        1.4778168173   -0.4232398393    1.5433604582
C        0.5495413449   -1.7790522057    3.2471108138
N       -0.6992522176   -1.6118038463    2.8245230953
O        1.1094015885   -4.2557310184    4.0968622773
O        2.0127398381   -2.1312897686    5.2980964222
S        0.6517528562   -2.9535222024    4.6577573000
Cl       2.8320089442    0.3301041052    0.7391075326
H       -0.0050572176    0.3926761686    0.1888551802
H        2.6748514346   -1.3992324135    3.0776739900
H       -1.8962632390   -0.7084785509    1.3982914786
H        2.2676347574   -2.5966545260    6.1171636526
14   
Generated by ForceBalance from scan.xyz: Frame 8 of 24
C        0.2960977147   -0.5433727128    0.9059287933
C        1.3003061442   -0.5119669945    3.1031782100
C       -0.5261678350   -1.5805864515    1.3476443448
C        1.2202257306   -0.0062884537    1.8082754710
C        0.4175120433   -1.5469498288    3.4147363812
N       -0.4742090513   -2.0851393428    2.5911803698
O        1.8538737905   -2.9537626869    5.1765170539
O        0.4861259533   -0.8483740899    5.8476496313
S        0.4889509647   -2.3673399223    5.0548023909
Cl       2.2696842758    1.2960759509    1.3085926115
H        0.2191778002   -0.1660585790   -0.1082786790
H        2.0001504156   -0.1285959007    3.8370727142
H       -1.2569483707   -2.0248027771    0.6754655210
H        0.4547962143   -1.0237576672    6.8074830291
14   
Generated by ForceBalance from scan.xyz: Frame 9 of 24
C        0.2525810929   -0.5050444544    0.9282212264
C        1.4096564384   -0.5720496135    3.0473539101
C       -0.5729764776   -1.5268340012    1.3991772256
C        1.2572763175   -0.0258513283    1.7756682987
C        0.5128820209   -1.5835897162    3.3925597955
N       -0.4534717371   -2.0680441846    2.6227594624
O        2.1079314989   -2.6685203398    5.2369107866
O        0.2794871186   -0.9122663811    5.8164374436
S        0.6576945243   -2.3873227201    5.0345245876
Cl       2.3143861060    1.2542033920    1.2366671806
H        0.1181837876   -0.0964703694   -0.0677312693
H        2.1808324518   -0.2459970091    3.7368818389
H       -1.3628967499   -1.9276208022    0.7678195654
H        0.1489195731   -1.1097373883    6.7637872278
14   
Generated by ForceBalance from scan.xyz: Frame 10 of 24
C        0.2678825951   -0.4515938573    0.9713563646
C        1.5414908124   -0.6037472152    3.0179902382
C       -0.5725353821   -1.4464561584    1.4753291138
C        1.3396195872   -0.0300526180    1.7645258366
C        0.6230138090   -1.5803864067    3.3988559170
N       -0.4065881472   -2.0123763782    2.6811165040
O        2.2789775447   -2.3596509858    5.3319115151
O        0.0890314479   -1.0312500515    5.8062175540
S        0.8164753955   -2.3749553932    5.0399323214
Cl       2.4198024560    1.2112321717    1.1828692952
H        0.0941200509   -0.0221630969   -0.0096270526
H        2.3672750029   -0.3318287988    3.6673037578
H       -1.4132164819   -1.8031619649    0.8842388229
H       -0.1517382979   -1.3062017686    6.7116298282
14   
Generated by ForceBalance from scan.xyz: Frame 11 of 24
C        0.2630905322   -0.4450542509    0.9895616621
C        1.6234821635   -0.6360702724    2.9761554837
C       -0.5982075205   -1.3947422461    1.5462554374
C        1.3899990315   -0.0675148941    1.7244648887
C        0.6766080300   -1.5576152272    3.4147041172
N       -0.4016405169   -1.9542574450    2.7488697658
O        2.3443163253   -2.0726601955    5.4188142903
O       -0.0741601031   -1.1881810681    5.8050617468
S        0.9247212391   -2.3475482633    5.0523138461
Cl       2.5026950485    1.1097053625    1.0747226406
H        0.0630099044   -0.0202774964    0.0115858436
H        2.4884894718   -0.3985591087    3.5872811726
H       -1.4801505725   -1.7193634584    0.9981895279
H       -0.3702930292   -1.5658404369    6.6549547122
14   
Generated by ForceBalance from scan.xyz: Frame 12 of 24
C        0.2411549972   -0.4314122425    0.9753396068
C        1.6675853252   -0.6240775870    2.9148330877
C       -0.6400006023   -1.3229507605    1.5959522011
C        1.4121838300   -0.0859009267    1.6530821394
C        0.6940004799   -1.4790477518    3.4227019926
N       -0.4215221836   -1.8540743222    2.8062305841
O        2.3372207656   -1.7540574614    5.4886910918
O       -0.2095731530   -1.3247066015    5.7945362151
S        1.0030332702   -2.2616222060    5.0547671848
Cl       2.5553688879    1.0111458341    0.9210702353
H        0.0225979799   -0.0295921176   -0.0083505983
H        2.5595641872   -0.3994935506    3.4911527256
H       -1.5560549488   -1.6237055503    1.0918396220
H       -0.5086262313   -1.8101814290    6.5862636217
14   
Generated by ForceBalance from scan.xyz: Frame 13 of 24
C        0.2693923423   -0.4498014766    0.9556510685
C        1.7283776870   -0.6386448720    2.8711288038
C       -0.6419189854   -1.2661297662    1.6339694356
C        1.4731636422   -0.1423400139    1.5919842679
C        0.7202182157   -1.4108252051    3.4430565266
N       -0.4221661338   -1.7584333901    2.8599117807
O        2.2812237423   -1.4746555456    5.5867225069
O       -0.3093909003   -1.4881717793    5.7788328348
S        1.0707753558   -2.1808989005    5.0744508441
Cl       2.6592894397    0.8531783238    0.7870650767
H        0.0490751288   -0.0789067784   -0.0397109714
H        2.6401295810   -0.4245762546    3.4194943015
H       -1.5839320355   -1.5394217938    1.1629898140
H       -0.5777669370   -2.0653804663    6.5178012785
14   
Generated by ForceBalance from scan.xyz: Frame 14 of 24
C        0.2634424032   -0.4464008264    0.9567518678
C        1.7581469254   -0.6434730248    2.8427794530
C       -0.6676262506   -1.1934695942    1.6854321053
C        1.4967678204   -0.1793302535    1.5531469677
C        0.7274322529   -1.3433326423    3.4701490184
N       -0.4407409609   -1.6572025655    2.9213424675
O        2.1668440811   -1.2043378314    5.6936453498
O       -0.3804725108   -1.6953180207    5.7534879923
S        1.1287061559   -2.0972872306    5.1006835450
Cl       2.7115259354    0.7256314318    0.6864870449
H        0.0358643150   -0.0982710952   -0.0451697179
H        2.6903178866   -0.4400660539    3.3594871220
H       -1.6340003449   -1.4353270369    1.2476684741
H       -0.5705396969   -2.3409575119    6.4590819888
14   
Generated by ForceBalance from scan.xyz: Frame 15 of 24
C        0.2884252885   -0.4581347602    0.9294120387
C        1.8012665693   -0.7113702545    2.7929945497
C       -0.6698743109   -1.1360784964    1.6880884997
C        1.5458221314   -0.2541517696    1.5005500971
C        0.7445511024   -1.3439593996    3.4526288041
N       -0.4476713116   -1.5948836392    2.9274799153
O        1.9774320744   -1.0294939512    5.7865710271
O       -0.4265168895   -2.0006424391    5.6413337903
S        1.1692339226   -2.0752175757    5.0935396290
Cl       2.7958089299    0.5653797819    0.5996777912
H        0.0632559241   -0.1134353131   -0.0742547358
H        2.7535373557   -0.5420374193    3.2847571694
H       -1.6579960612   -1.3257555044    1.2736400420
H       -0.5095915718   -2.6485414262    6.3655023863
14   
Generated by ForceBalance from scan.xyz: Frame 16 of 24
C        0.2819213593   -0.4454261724    0.9401761074
C        1.8265953036   -0.7245375647    2.7721112885
C       -0.6870270965   -1.0554940153    1.7402477780
C        1.5618449283   -0.2870153599    1.4756667394
C        0.7615228459   -1.2983736215    3.4728622571
N       -0.4546993907   -1.4927791541    2.9864730699
O        1.6959611348   -0.7212398659    5.9029542265
O       -0.4042196886   -2.2224727813    5.5688612962
S        1.2042814635   -1.9194527223    5.1610494536
Cl       2.8253199035    0.4531583850    0.5260297198
H        0.0475899989   -0.1139896524   -0.0658639148
H        2.8022152261   -0.5899887984    3.2282429497
H       -1.6947421014   -1.2049969267    1.3576743974
H       -0.3872176655   -2.7695033349    6.3767984208
14   
Generated by ForceBalance from scan.xyz: Frame 17 of 24
C        0.2268006425   -0.3176290908    0.9517246916
C        1.8227857478   -0.6682844039    2.7246091012
C       -0.7341520335   -0.9041306922    1.7796337976
C        1.5284626810   -0.2046316823    1.4433112330
C        0.7675194797   -1.2256352160    3.4514754575
N       -0.4742680069   -1.3603735335    3.0128707629
O        1.3458105718   -0.5107200683    5.9619352312
O       -0.2738081127   -2.4864018104    5.4372836736
S        1.2271488845   -1.7663373471    5.1642730358
Cl       2.7810658100    0.5108892461    0.4608960217
H       -0.0320661894    0.0342253427   -0.0412771289
H        2.8216796685   -0.5806377963    3.1412238932
H       -1.7594295446   -1.0135901238    1.4316190831
H       -0.1955390932   -2.9718478030    6.2806472616
14   
Generated by ForceBalance from scan.xyz: Frame 18 of 24
C        0.2373341170   -0.3236924908    0.9537645420
C        1.8439538120   -0.7017636070    2.7109910275
C       -0.7386714696   -0.8294081428    1.8187904138
C        1.5508950497   -0.2628830789    1.4194488746
C        0.7769342476   -1.1854727931    3.4700400873
N       -0.4819333369   -1.2550073812    3.0621414809
O        0.9809189475   -0.3760725099    6.0119577086
O       -0.1215277735   -2.6561950455    5.3713593532
S        1.2028380009   -1.6183496970    5.2176354350
Cl       2.8211707643    0.3571761073    0.3957536450
H       -0.0216806569    0.0102349605   -0.0453779755
H        2.8553642505   -0.6636085959    3.1048125097
H       -1.7749209208   -0.8916691982    1.4921939213
H       -0.0280519321   -3.0976312815    6.2370641274
14   
Generated by ForceBalance from scan.xyz: Frame 19 of 24
C        0.2255306124   -0.4578633559    0.9703505208
C        1.6777515509   -0.4923628493    2.8948831889
C       -0.3533038228   -1.6350017594    1.4599157383
C        1.2578322603    0.1166845445    1.7104782114
C        1.0217258180   -1.6662810150    3.2645344111
N        0.0290174261   -2.2347302193    2.5928621949
O        0.3579222310   -2.0489303854    5.8342191931
O        1.3648251238   -3.9512538070    4.3542366660
S        1.4868986641   -2.3565092355    4.9120953134
Cl       2.0217138016    1.5880511334    1.1650418671
H       -0.1232685224   -0.0075817676    0.0470438088
H        2.4782511510   -0.0708961182    3.4957610265
H       -1.1646172290   -2.1099380323    0.9116407034
H        1.6377228193   -4.5293279683    5.0921550268
14   
Generated by ForceBalance from scan.xyz: Frame 20 of 24
C        0.2304378348   -0.4630519999    0.9691226291
C        1.6733352143   -0.5046734008    2.9008623333
C       -0.4142472911   -1.5878140515    1.4994882453
C        1.2901774424    0.0819182559    1.6921619984
C        0.9541207733   -1.6270759104    3.3082695619
N       -0.0681609504   -2.1644466341    2.6552244872
O        0.1396944146   -2.2590386369    5.7913863155
O        1.5630496686   -3.8779127694    4.3179172429
S        1.3755398415   -2.3180107091    4.9650697148
Cl       2.1334052648    1.4895714895    1.0974115807
H       -0.0912864722   -0.0287744545    0.0284691987
H        2.4931184582   -0.1054958112    3.4906592151
H       -1.2492947038   -2.0371114711    0.9654351491
H        1.8520610365   -4.4571223699    5.0489255258
14   
Generated by ForceBalance from scan.xyz: Frame 21 of 24
C        0.2502428290   -0.4695495579    0.9594792884
C        1.6696800406   -0.5343142874    2.9083960463
C       -0.4708890054   -1.5313439440    1.5197665460
C        1.3363666145    0.0317341414    1.6755316217
C        0.8749178781   -1.5931763290    3.3441485404
N       -0.1723268869   -2.0879300741    2.6986706068
O       -0.0379871138   -2.4753873086    5.7238896886
O        1.7333016842   -3.7718449496    4.3085676326
S        1.2518148722   -2.2942986582    5.0087429519
Cl       2.2735708903    1.3607927581    1.0416812732
H       -0.0343048674   -0.0482286467    0.0011111976
H        2.5070655372   -0.1678040958    3.4945967842
H       -1.3276915302   -1.9450838072    0.9914943223
H        2.0461457290   -4.3457279708    5.0342205225
14   
Generated by ForceBalance from scan.xyz: Frame 22 of 24
C        0.2553314004   -0.4624034141    0.9496753743
C        1.6634723552   -0.5691536553    2.9050190663
C       -0.5338637566   -1.4598839983    1.5332912465
C        1.3709997833   -0.0147391352    1.6576910224
C        0.8004440154   -1.5638342264    3.3634571984
N       -0.2739203724   -2.0054619610    2.7276971348
O       -0.1529604640   -2.6975263198    5.6228903049
O        1.9125003737   -3.6218598256    4.3151202673
S        1.1421857547   -2.2762157858    5.0342633541
Cl       2.3938793501    1.2338663526    0.9929349379
H        0.0008628654   -0.0471914969   -0.0197605540
H        2.5220116706   -0.2441472127    3.4850079487
H       -1.4146091276   -1.8307949528    1.0127505527
H        2.3006341875   -4.1522281142    5.0375712289
14   
Generated by ForceBalance from scan.xyz: Frame 23 of 24
C        0.2480092629   -0.4422784053    0.9534578680
C        1.6523596011   -0.6336015982    2.9058707132
C       -0.6040936357   -1.3810409328    1.5426187479
C        1.3940136540   -0.0675291078    1.6577284828
C        0.7260195778   -1.5681702816    3.3702290341
N       -0.3769534997   -1.9369985436    2.7406383753
O       -0.2428101571   -2.9565459251    5.4757313672
O        2.0778722186   -3.4544712767    4.3665170809
S        1.0141705093   -2.2978355714    5.0479183644
Cl       2.4963376377    1.1059780938    0.9826916164
H        0.0198290771   -0.0146674159   -0.0171308512
H        2.5351775044   -0.3688660558    3.4797683556
H       -1.5098300361   -1.6942127869    1.0271367481
H        2.5048225517   -3.9248864993    5.1082853049
14   
Generated by ForceBalance from scan.xyz: Frame 24 of 24
C        0.2306047954   -0.4095179145    0.9632981948
C        1.6431185567   -0.7158551989    2.8961061010
C       -0.6744730918   -1.2955822816    1.5526261464
C        1.4073452208   -0.1197167234    1.6585343823
C        0.6635032473   -1.5960241321    3.3606225877
N       -0.4707476517   -1.8786372104    2.7429603351
O       -0.2789049921   -3.2310012372    5.2876839228
O        2.2169471045   -3.2593109525    4.4594805996
S        0.8844882664   -2.3476124525    5.0400492643
Cl       2.5777893183    0.9843770239    0.9807747097
H        0.0210547304    0.0430181001   -0.0001774278
H        2.5521905608   -0.5247234940    3.4571193472
H       -1.6057574699   -1.5416525553    1.0464883170
H        2.6451350980   -3.6655031536    5.2373678686
