74

C      4.06149   -4.64384    5.18627
C      3.71722   -3.63885    6.09739
C      5.35584   -4.67542    4.65726
C     -7.41469    8.50418    0.20076
C     -8.62644    8.19947    0.82524
C      4.65399   -2.67254    6.46574
C      6.29416   -3.71131    5.03530
C      8.03569    1.78489    6.07857
C      7.98033    0.67130    8.20859
C      4.72919    1.24485    6.17522
C      5.07738   -0.24149    4.31978
C      8.86857    2.77043    6.60111
C      8.80799    1.65776    8.75199
C      3.59371    1.77612    5.55435
C      3.95949    0.28184    3.68333
C     -6.22449    8.22464    0.87217
C     -8.59041    7.62363    2.09836
C      7.58823    0.70496    6.86253
C      5.48110    0.21794    5.58872
C      5.95516   -2.68475    5.93311
C      9.26003    2.70772    7.94514
C      3.20170    1.29063    4.29971
C     -6.29633    7.64266    2.14570
C      6.68481   -0.32700    6.27881
C      6.95315   -1.65835    6.35068
C      8.11014   -3.04119    8.15984
C     -5.04726    7.30150    2.91535
C      8.26336   -2.21909    6.86871
C     -0.74550    4.17477    3.72703
C      0.18296    3.07440    3.20147
C     -1.88268    4.48977    2.74641
C      1.31178    2.76623    4.17442
C     -2.79790    5.58854    3.28754
N     -7.45552    7.34429    2.75269
O     -3.51629    6.48624    0.87230
O     -5.00019    4.75276    2.01906
O     10.07756    3.70849    8.41551
O      2.11502    1.73734    3.59558
S     -4.13075    5.93703    2.09789
H      3.33148   -5.39471    4.89499
H      2.71641   -3.60779    6.52105
H      5.63539   -5.45059    3.94790
H     -7.39562    8.94853   -0.79084
H     -9.57859    8.39936    0.34218
H      4.37950   -1.89068    7.16758
H      7.29261   -3.74450    4.60684
H      7.72542    1.84739    5.03908
H      7.62189   -0.13039    8.84723
H      5.03076    1.63806    7.14237
H      5.65073   -1.02001    3.82733
H      9.22152    3.59431    5.98760
H      9.09242    1.61125    9.80243
H      3.03663    2.56160    6.05249
H      3.65377   -0.07358    2.70350
H     -5.25848    8.42393    0.41934
H     -9.51395    7.37260    2.61744
H      7.41627   -3.87507    8.01707
H      7.72226   -2.42441    8.97749
H      9.07575   -3.45166    8.47432
H     -5.31580    6.95994    3.91629
H     -4.34247    8.13583    2.96323
H      8.98714   -1.41610    7.01869
H      8.68689   -2.87468    6.09663
H     -1.16973    3.86855    4.69265
H     -0.16414    5.08690    3.91776
H      0.61702    3.37515    2.24117
H     -0.38697    2.15631    3.01916
H     -1.46773    4.80808    1.78482
H     -2.47458    3.58777    2.56122
H      1.92338    3.66156    4.35458
H      0.91010    2.42829    5.14012
H     -3.28489    5.28900    4.22030
H     -2.25811    6.52825    3.43970
H     10.27453    3.54151    9.35077
