14   

C       -1.7006006698   -0.2943244231    0.0892261578
C        0.4076507823   -0.7134711401    0.1434816868
C        1.7730573129   -1.3318565289    0.0555675803
C        0.2773311457    0.8242679608    0.1942988081
N        1.3834593651    2.0380014135   -1.9074903655
N       -1.1909236190    0.9117322592    0.1554413679
N       -0.7567363189   -1.3049687294    0.0651234952
N        0.8802233975    1.4890605037   -0.9671924876
N        1.8227321580   -2.6275193672   -0.2958711529
O        2.7940108169   -0.6720128779    0.1323004061
H       -2.7716997758   -0.4800235544    0.0535423591
H        0.6975062449    1.2166234108    1.1298381949
H        2.7418635715   -3.0505444887   -0.3905011309
H        0.9753486741   -3.1833577501   -0.3673429845
14   

C       -1.7227092070   -0.3278076954    0.0288653330
C        0.3844786400   -0.7221975334    0.2211090475
C        1.7549254493   -1.3379939925    0.1760723541
C        0.2360204193    0.8170008366    0.1814011877
N        1.4273921891    1.9291078962   -1.9300032725
N       -1.2292275258    0.8858051481    0.0691954060
N       -0.7682406888   -1.3269947131    0.0866687492
N        0.8869040990    1.4252206347   -0.9851730678
N        1.8391590504   -2.5547442420   -0.3971478306
O        2.7646394005   -0.6786083772    0.3460878489
H       -2.7891012879   -0.5277738047   -0.0474280083
H        0.6077606830    1.2639924985    1.1129692291
H        2.7677739063   -2.9545925671   -0.5000949448
H        1.0051743429   -3.1110607689   -0.5616825537
14   

C       -1.7147030423   -0.3407440854   -0.1113832727
C        0.3690076636   -0.7524051844    0.2530198917
C        1.7269031564   -1.4014634872    0.2965033448
C        0.2382949966    0.7905043621    0.1545090687
N        1.5636831507    1.8192194788   -1.9187530642
N       -1.2154139591    0.8694509516   -0.0546396137
N       -0.7743884077   -1.3459685261    0.0222216304
N        0.9652978225    1.3519567142   -0.9901472501
N        1.8911293754   -2.4848975083   -0.4952976491
O        2.7156579318   -0.7742985266    0.6302596187
H       -2.7756338125   -0.5339741069   -0.2528598652
H        0.5566775558    1.2649587140    1.0923243604
H        2.8310419225   -2.8670222270   -0.5547464723
H        1.0874432170   -3.0221522853   -0.8072540837
14   

C       -1.7014526829   -0.3042455801   -0.2346710706
C        0.3474558878   -0.7520451430    0.2677182009
C        1.6803901280   -1.4461387210    0.3928176440
C        0.2566422194    0.7940776668    0.1112689789
N        1.6892894354    1.7224156452   -1.9376024130
N       -1.1825541117    0.8971528458   -0.1722688570
N       -0.7892445329   -1.3244122927   -0.0363062816
N        1.0450771620    1.2992203100   -1.0186177679
N        1.9729381869   -2.3616467768   -0.5622428206
O        2.6254515915   -0.8723109673    0.9016024656
H       -2.7577164009   -0.4800621624   -0.4249482973
H        0.5422240414    1.2939043524    1.0465661217
H        2.9219289639   -2.7258540735   -0.5521039845
H        1.2272840091   -2.8722502722   -1.0256910499
14   

C       -1.7091821018   -0.2991060495   -0.2699902186
C        0.3180538823   -0.7738718897    0.2958949870
C        1.6277624011   -1.5074585558    0.4643432764
C        0.2640426328    0.7698119380    0.0774664115
N        1.7386922751    1.5933729174   -1.9861615468
N       -1.1673127147    0.8930877032   -0.2349785016
N       -0.8213629923   -1.3303071123   -0.0251870849
N        1.0773366933    1.2161607971   -1.0593672097
N        2.0526648457   -2.2348355626   -0.6018773895
O        2.5172879153   -1.0051596245    1.1249871317
H       -2.7655445071   -0.4599444958   -0.4723881772
H        0.5451270243    1.2991509743    0.9978717480
H        3.0053933209   -2.5831784015   -0.5320928788
H        1.3757994427   -2.7120106012   -1.1894801233
14   

C       -1.7280279365   -0.2862466133   -0.2014377432
C        0.2996597480   -0.7920059971    0.3356095833
C        1.5871909244   -1.5656348305    0.5192980856
C        0.2807000240    0.7442573086    0.0490003350
N        1.7150633060    1.4561143702   -2.0834024419
N       -1.1541989304    0.8911345688   -0.2355504986
N       -0.8621386314   -1.3291429477    0.0691335904
N        1.0730654697    1.1275891406   -1.1249320366
N        2.1277107170   -2.0930091785   -0.6171458446
O        2.4168628409   -1.1662779445    1.3134890934
H       -2.7930647055   -0.4274000223   -0.3703151081
H        0.5945586546    1.3047183164    0.9400290950
H        3.0793010377   -2.4337633760   -0.5025499426
H        1.5183375944   -2.5246635128   -1.3049338052
14   

C       -1.7349296931   -0.0622942086    0.6698246326
C        0.2774416643   -0.8051179342    0.3704896714
C        1.5384658250   -1.6240434986    0.5644918811
C        0.2934019919    0.7187467279    0.0131790579
N        0.9045361216    1.2766306037   -2.5233218339
N       -1.1271710893    1.0163848723    0.2398648733
N       -0.9080726733   -1.1582900866    0.7937490302
N        0.6367004645    1.0090618859   -1.3839406116
N        2.1992214636   -1.9494307370   -0.5922723189
O        1.7809282080   -2.2906732713    1.5506156374
H       -2.7949102450   -0.0893868078    0.9119594641
H        0.9425411106    1.2725735100    0.7048677482
H        2.8987791617   -2.6762559472   -0.4514222882
H        1.7617350752   -1.8563611677   -1.5000595263
14   

C       -1.7256630708    0.0169702996    0.7104083440
C        0.2545751482   -0.8047040013    0.3858589030
C        1.4831073331   -1.6721015969    0.5933588622
C        0.3027634664    0.7012822517   -0.0464225339
N        0.7856866838    1.1358774413   -2.6346733725
N       -1.0965091894    1.0578902743    0.2226639767
N       -0.9309953034   -1.0994796403    0.8524303796
N        0.5782631550    0.9218513776   -1.4714023122
N        2.2774708666   -1.8110286572   -0.5236492329
O        1.6210301504   -2.4852645122    1.4854503757
H       -2.7774758415    0.0344320787    0.9866463794
H        0.9992052495    1.2671037038    0.5869334970
H        2.9726838868   -2.5481766171   -0.4171792743
H        1.9590600557   -1.5635297144   -1.4504254916
14   

C       -1.7127133278    0.0506133526    0.7433097777
C        0.2390099571   -0.8274062185    0.3870258388
C        1.4329334211   -1.7487110592    0.5755436052
C        0.3093620072    0.6659019749   -0.0871899648
N        0.6462601723    1.0121316369   -2.7124471854
N       -1.0669110860    1.0688875125    0.2302880355
N       -0.9468456514   -1.0864919595    0.8741830399
N        0.5082738304    0.8384250372   -1.5319219440
N        2.3557810668   -1.7023535717   -0.4539749633
O        1.4931029719   -2.6741503651    1.3607695160
H       -2.7548703221    0.1013072376    1.0503551394
H        1.0501454537    1.2310903730    0.4941549851
H        3.0592438786   -2.4367573682   -0.3898793943
H        2.1998979201   -1.2328342820   -1.3338879744
14   

C       -1.7156903486    0.0778449805    0.7162798610
C        0.2232454515   -0.8375290676    0.3737468881
C        1.3764366113   -1.8157945417    0.5457294184
C        0.3118612943    0.6465596772   -0.1325364808
N        0.5911683126    0.8907858066   -2.7765489630
N       -1.0520354654    1.0807245395    0.1957569461
N       -0.9722504392   -1.0736930044    0.8496265236
N        0.4812207873    0.7669739369   -1.5865867460
N        2.4332023924   -1.6226293154   -0.3283450838
O        1.3512215764   -2.8287713725    1.2168451451
H       -2.7547258353    0.1511463233    1.0293262762
H        1.0727123248    1.2143695286    0.4192424901
H        3.1451801892   -2.3493725105   -0.2707546448
H        2.4739256639   -0.9270652858   -1.0582676746
14   

C       -1.7506107180   -0.3669361044   -0.1279011359
C        0.3485540042   -0.7484078713    0.2830202006
C        1.6090552851   -1.5423752629    0.5939521648
C        0.1247883611    0.8000940600    0.3898817965
N        1.3585257123    2.1667439491   -1.5439509650
N       -1.3161447874    0.8455905485    0.1121040682
N       -0.7787037078   -1.3371677192   -0.0251043980
N        0.8180553677    1.5469798852   -0.6680643262
N        2.7542834529   -0.7673156778    0.7026709921
O        1.7074021341   -2.7538825924    0.5941581414
H       -2.7865548427   -0.5900654999   -0.3728871526
H        0.3644920074    1.1786198183    1.3918463855
H        3.5994276045   -1.3178516771    0.8484619666
H        2.7750174278    0.2338938894    0.8328969571
14   

C       -1.7491651079   -0.3564774180   -0.1210737973
C        0.3455043941   -0.7562158356    0.2806253148
C        1.6294302241   -1.5332064724    0.5137434681
C        0.1503806891    0.7957634342    0.3433430871
N        1.4035719707    2.0724048696   -1.6388867703
N       -1.2931370002    0.8554313137    0.0807821715
N       -0.7893835970   -1.3381094964   -0.0102994824
N        0.8520398339    1.4946647779   -0.7415448709
N        2.7221039350   -0.7306094263    0.8123324212
O        1.7719876397   -2.7354510767    0.4075551870
H       -2.7917213365   -0.5700056524   -0.3457701781
H        0.4035742747    1.2006798424    1.3311500723
H        3.5767914288   -1.2652827040    0.9623438673
H        2.6691587922    0.2257375074    1.1337143675
14   

C       -1.7535921169   -0.3449813213   -0.0965520264
C        0.3426580357   -0.7366986184    0.2981037189
C        1.6517761835   -1.4883338979    0.4544104601
C        0.1542394689    0.8166830181    0.3084826950
N        1.4097356615    2.0106561419   -1.7228664945
N       -1.2922893951    0.8716346292    0.0611949776
N       -0.7934405771   -1.3251071895    0.0265417378
N        0.8553679021    1.4708915810   -0.8040501112
N        2.6887786218   -0.7091008631    0.9405229988
O        1.8309987849   -2.6721211090    0.2465465667
H       -2.7996994020   -0.5626359808   -0.2997628405
H        0.4177081676    1.2555226124    1.2785532241
H        3.5432873122   -1.2437415694    1.0915867651
H        2.5650097507    0.1706662847    1.4227862171
14   

C       -1.7325858194   -0.3343388428   -0.1069963570
C        0.3658459686   -0.7068239256    0.2950943158
C        1.6941680767   -1.4335579347    0.3945407396
C        0.1715100070    0.8460139922    0.2580722620
N        1.4231088114    1.9729224941   -1.8132738406
N       -1.2769525216    0.8880142036    0.0196044410
N       -0.7656639824   -1.3064253174    0.0287069290
N        0.8695484482    1.4636918205   -0.8768163922
N        2.6691108802   -0.7380782834    1.0790351526
O        1.9018551212   -2.5874844195    0.0753826312
H       -2.7790103620   -0.5619988631   -0.2971579025
H        0.4410234500    1.3166311662    1.2112309238
H        3.5107470669   -1.2920210479    1.2317791773
H        2.4780011710    0.0447326297    1.6905847230
14   

C       -1.7227011058   -0.3396033859   -0.1085475518
C        0.3815438403   -0.6771151668    0.2972371969
C        1.7274310793   -1.3741258488    0.3559239051
C        0.1693303269    0.8719650175    0.2097125435
N        1.3911756499    1.9340165281   -1.9128873570
N       -1.2820524099    0.8908978619   -0.0133592763
N       -0.7416277427   -1.2959491943    0.0387059244
N        0.8506992213    1.4544493942   -0.9534548702
N        2.6324487356   -0.8119915624    1.2206433041
O        1.9651603437   -2.4804933222   -0.0868078357
H       -2.7678853247   -0.5847751060   -0.2830368241
H        0.4476961180    1.3780949289    1.1419491460
H        3.4560304024   -1.3946519910    1.3628052595
H        2.3791263672   -0.1353721572    1.9296943359
14   

C       -1.6686667626   -0.3466307781   -0.1207301152
C        0.4404894801   -0.6331122577    0.2944091480
C        1.8085438749   -1.2822926151    0.3324212919
C        0.2002034656    0.9080628477    0.1638755492
N        1.3888401310    1.9192770468   -2.0019971207
N       -1.2529519343    0.8940256916   -0.0486698409
N       -0.6674192780   -1.2801647612    0.0389440347
N        0.8630146694    1.4637339359   -1.0229449659
N        2.6231474973   -0.8926953201    1.3556022831
O        2.1036369882   -2.3008356345   -0.2609843027
H       -2.7094944148   -0.6158323115   -0.2854671261
H        0.4801119064    1.4466321322    1.0774893587
H        3.4381285399   -1.4931455693    1.4678109751
H        2.2964983048   -0.3478740827    2.1446172671
14   

C       -1.6552978459   -0.3523922664   -0.0843407788
C        0.4597158670   -0.5986504840    0.3087769703
C        1.8439117054   -1.2027690333    0.3335417871
C        0.2068037792    0.9306732103    0.1116478431
N        1.3522434021    1.8310342736   -2.1252596873
N       -1.2503802761    0.8940911010   -0.0714763208
N       -0.6425104761   -1.2701148233    0.0975109219
N        0.8447631966    1.4274848315   -1.1143152991
N        2.5802614216   -1.0076679452    1.4574601454
O        2.2161543037   -2.0658387808   -0.4368222941
H       -2.6963212850   -0.6369341933   -0.2192943723
H        0.5032048224    1.5137918616    0.9923620575
H        3.4066107640   -1.5999283339    1.5116221516
H        2.1893174261   -0.6163856005    2.3068441974
14   

C       -1.6129823931   -0.2383280329    0.7152760307
C        0.4856122177   -0.5627934452    0.3410906135
C        1.8849345913   -1.1207718136    0.3602427515
C        0.2110497949    0.9472073669    0.0661652440
N        0.7818287316    1.5766186022   -2.4614531154
N       -1.2362264155    0.9541918618    0.3227288668
N       -0.5832505850   -1.1572243715    0.8011363159
N        0.5180717729    1.2967170485   -1.3250818021
N        2.5459333391   -1.1279410189    1.5393450526
O        2.6054246599   -0.9359751908   -0.6039007797
H       -2.6456382449   -0.4803087550    0.9558818708
H        0.7665870803    1.5848075991    0.7653857668
H        3.5422742117   -1.3204453404    1.4730994992
H        2.0515406369   -1.2910347146    2.4108729181
14   

C       -1.5750942925   -0.1835269720    0.7771078552
C        0.5117357388   -0.5169950385    0.3501013812
C        1.9224868327   -1.0388321313    0.3794549617
C        0.2160623447    0.9676361074   -0.0085262956
N        0.7050859287    1.4682962464   -2.5815114384
N       -1.2228151861    0.9816489116    0.2918335151
N       -0.5334044417   -1.0858956104    0.8914743600
N        0.4769102438    1.2440003320   -1.4254476804
N        2.4964020544   -1.2534288673    1.5800398381
O        2.6951615784   -0.7151791448   -0.5047090345
H       -2.5970970986   -0.4162321509    1.0672291736
H        0.7875913324    1.6484840862    0.6350698800
H        3.4975635888   -1.4295158736    1.5667011172
H        1.9366507188   -1.5121901129    2.3866137924
14   

C       -1.5542815980   -0.1752847389    0.7773296865
C        0.5419548465   -0.4705212327    0.3761538444
C        1.9677113205   -0.9442189985    0.4209996901
C        0.2114892658    0.9814541624   -0.0582800305
N        0.6874698892    1.3796969863   -2.6515901211
N       -1.2283726878    0.9742958424    0.2393146675
N       -0.4916219939   -1.0465390473    0.9329561021
N        0.4651860780    1.1992759281   -1.4868017722
N        2.4545427461   -1.3685678446    1.6010429526
O        2.7807230525   -0.5036577879   -0.3719665803
H       -2.5709885214   -0.4181851261    1.0776051803
H        0.7647551145    1.7072860936    0.5514932013
H        3.4563505316   -1.5349341723    1.6436228157
H        1.8362067068   -1.7158581817    2.3278137444
14   

C       -1.7032029067   -0.3433534597    0.2737937915
C        0.3696438190   -0.7438078203   -0.1461933379
C        1.7067045497   -1.3940819814   -0.3581411197
C        0.2963067926    0.7348939343    0.3039455367
N        1.1398982939    2.4131330376   -1.5889651015
N       -1.1581038291    0.8264193717    0.5024844567
N       -0.7972169283   -1.3297855387   -0.0709187836
N        0.7527634790    1.6584723390   -0.7408656605
N        1.8863852030   -2.6263303012    0.1450787747
O        2.6958744594   -0.7243143875   -0.5968446981
H       -2.7733954016   -0.5203527534    0.3530328494
H        0.8603584510    0.8878362707    1.2332168382
H        2.8286926860   -3.0052488787    0.1083464997
H        1.0951981058   -3.2086793652    0.4026879627
14   

C       -1.6984360841   -0.3193092978    0.2236383444
C        0.3901938733   -0.7301349238   -0.0835396648
C        1.7393819386   -1.3651612835   -0.2542185729
C        0.2961868070    0.7704192003    0.2705846787
N        1.1915903324    2.3436491267   -1.6878218850
N       -1.1650421065    0.8630378157    0.4133129577
N       -0.7782934505   -1.3165567601   -0.0440339812
N        0.7816632075    1.6351290323   -0.8110989758
N        1.8506531664   -2.6666299661    0.0501410765
O        2.7475330016   -0.6948736385   -0.3897596563
H       -2.7701005876   -0.4975165095    0.2759932970
H        0.8270853372    0.9828701654    1.2077940187
H        2.7820050517   -3.0723512783    0.0234459027
H        1.0286827655   -3.2415465728    0.2100632627
14   

C       -1.7011787695   -0.3040183569    0.1894861965
C        0.3984774884   -0.7219934193   -0.0024243345
C        1.7559785486   -1.3451779884   -0.1433545785
C        0.2885924185    0.7959980554    0.2512724117
N        1.2437744172    2.2541044975   -1.7672842181
N       -1.1773045628    0.8887196147    0.3371924275
N       -0.7702523426   -1.3093396345    0.0008135586
N        0.8074289943    1.5964988876   -0.8640272010
N        1.8288888149   -2.6803349572   -0.0529481647
O        2.7727268920   -0.6766894008   -0.2008388036
H       -2.7735712746   -0.4837748529    0.2150188581
H        0.7851182420    1.0692461396    1.1916589684
H        2.7525339202   -3.1020099771   -0.0947553254
H        0.9907552458   -3.2490124046    0.0249676315
14   

C       -1.7054454498   -0.3056784855    0.1362384835
C        0.4025670370   -0.7196837734    0.0677136265
C        1.7671851627   -1.3332383370   -0.0468988937
C        0.2749303119    0.8107605644    0.2196947955
N        1.3000076726    2.1513781614   -1.8456501886
N       -1.1937852584    0.8967657214    0.2427675154
N       -0.7629893686   -1.3124314297    0.0304196887
N        0.8326635946    1.5459541889   -0.9216412232
N        1.8233543802   -2.6665452237   -0.1770542315
O        2.7860022829   -0.6656049629   -0.0371721987
H       -2.7771038159   -0.4914898233    0.1309500692
H        0.7316712494    1.1458150400    1.1603144356
H        2.7437429996   -3.0919426720   -0.2448074234
H        0.9785412727   -3.2307651558   -0.1741243530
