28   

C       -0.9864291480    0.3276396432    0.5217264888
C       -2.0409319652   -0.5895533760    0.6208323167
C       -1.7878432288    1.4789603334    2.5031846818
C       -3.9210815156    0.3917739006    3.5397769427
C       -2.8339439247    0.5554031518    2.5899836678
C       -0.8416019964    1.3739984647    1.4579447749
C       -2.9511012513   -0.4560461292    1.6616718064
C       -4.6570454247   -0.7109892841    3.1426344409
C       -5.7902527125   -1.3931287484    3.7610273493
C        1.2176046070    2.2844762758    2.5629085266
C       -0.2032472923    3.7696738635    1.0968231445
C        0.3123455083    2.3470650382    1.3292564063
N       -4.0551441413   -1.2375646990    1.9771132604
O       -6.1773432009   -2.5078616311    3.4361591648
O       -6.3724299194   -0.7090127171    4.7738592114
H       -0.2745514946    0.2218138897   -0.2887723971
H       -2.1447424303   -1.3924858838   -0.0980138053
H       -1.7103711598    2.2651784560    3.2438485800
H       -4.1130634697    0.9999329621    4.4155259185
H        0.6734033807    2.5783890083    3.4654245906
H        2.0726789689    2.9562441153    2.4385675781
H        1.5962979320    1.2663589008    2.6984298525
H       -0.8001172186    4.1145145021    1.9465120300
H       -0.8254265783    3.7997448555    0.1966667296
H        0.6363180774    4.4580736115    0.9587477053
H        0.9162815341    2.0657637297    0.4599787959
H       -4.3670035213   -2.0780282858    1.4945225307
H       -7.0858069278   -1.2860267667    5.0903309230
28   

C       -0.7191865624    0.1396838497    0.7973128998
C       -1.7288318903   -0.8220896882    0.9347608285
C       -1.8743692663    1.5911754001    2.3631900408
C       -4.0728014776    0.5522982142    3.3072384975
C       -2.8724258813    0.6206335527    2.4923680434
C       -0.7737928424    1.3587286251    1.5067754529
C       -2.7943219718   -0.5599118343    1.7866886847
C       -4.6811426212   -0.6639054536    3.0512502774
C       -5.8041141019   -1.3321243718    3.7081728754
C        1.0248093648    2.6519746342    2.6881142230
C       -0.1997041825    3.6673083092    0.7277087175
C        0.3382451950    2.3751301627    1.3471052104
N       -3.8866220903   -1.3556484657    2.1081924442
O       -5.9340257219   -2.5466154377    3.7764410529
O       -6.6703790634   -0.4929078153    4.3225529437
H        0.1148349284   -0.0670299646    0.1365886200
H       -1.6780498266   -1.7580903994    0.3929844522
H       -1.9509690397    2.5107384876    2.9299746457
H       -4.4115955188    1.2917209897    4.0227853098
H        0.3239161280    3.0859014071    3.4074571219
H        1.8561630161    3.3502651073    2.5496921733
H        1.4227514216    1.7211816003    3.1047641270
H       -0.9495218194    4.1301464961    1.3763748944
H       -0.6598158952    3.4537174478   -0.2423240763
H        0.6158689251    4.3805499444    0.5729959246
H        1.0935899957    1.9681346019    0.6664277446
H       -4.0548689437   -2.3101690482    1.7973840208
H       -7.3325003383   -1.0709994276    4.7340821278
28   

C       -0.7446441416    0.1688240841    0.7513431007
C       -1.7605310468   -0.7880633299    0.8772821932
C       -1.8844595142    1.6035330375    2.3435010373
C       -4.0776410552    0.5582784488    3.2905572827
C       -2.8882221978    0.6374895599    2.4614883043
C       -0.7881753879    1.3768525317    1.4801677175
C       -2.8211262182   -0.5322230326    1.7373470771
C       -4.6936213610   -0.6508097569    3.0216005853
C       -5.7700641126   -1.3410629969    3.7408592179
C        1.0184164062    2.6416303173    2.6820891771
C       -0.1936587551    3.6894126154    0.7311629163
C        0.3327200794    2.3859257972    1.3362178966
N       -3.9123120546   -1.3301819584    2.0580640276
O       -5.7641513957   -2.5341678982    4.0049147043
O       -6.7434671092   -0.5210676188    4.2005179890
H        0.0865257124   -0.0339001174    0.0858049075
H       -1.7165983651   -1.7167853818    0.3225628629
H       -1.9516066943    2.5134678469    2.9267739018
H       -4.3950401888    1.2790300084    4.0342868909
H        0.3197545074    3.0733815773    3.4048880656
H        1.8559378281    3.3344471228    2.5536121318
H        1.4076464053    1.7029068849    3.0890793506
H       -0.9420685955    4.1495724285    1.3833673924
H       -0.6524065961    3.4909849819   -0.2427164358
H        0.6276359015    4.3984022820    0.5876069485
H        1.0867086630    1.9810406634    0.6527845265
H       -4.0698375019   -2.2867596598    1.7493109409
H       -7.3531863149   -1.1000006314    4.6852163434
28   

C       -0.7784946235    0.1823182336    0.7134544725
C       -1.8011953309   -0.7682081866    0.8332131800
C       -1.8947877250    1.6027744349    2.3345656596
C       -4.0827710294    0.5567259811    3.2907124850
C       -2.9049545726    0.6427390593    2.4465614281
C       -0.8067705249    1.3799731915    1.4599478148
C       -2.8531908017   -0.5166594955    1.7051742829
C       -4.7088442116   -0.6439031980    3.0121550669
C       -5.7521873969   -1.3441299480    3.7827636174
C        1.0149042724    2.6165055930    2.6703091499
C       -0.1953975611    3.6952330525    0.7353320327
C        0.3223822890    2.3810087689    1.3240840538
N       -3.9450166775   -1.3135276292    2.0273469010
O       -5.6274556102   -2.4655034200    4.2472446862
O       -6.8406086677   -0.5867168049    4.0502766871
H        0.0466378398   -0.0177781674    0.0396592160
H       -1.7677684674   -1.6897660094    0.2659884102
H       -1.9495246921    2.5038937312    2.9326220374
H       -4.3785137518    1.2627182375    4.0570331873
H        0.3226875541    3.0466540612    3.4002169429
H        1.8578898657    3.3034898135    2.5462350100
H        1.3975576046    1.6702855653    3.0660223575
H       -0.9382934605    4.1536808304    1.3950184925
H       -0.6585852864    3.5112926603   -0.2392822843
H        0.6310202360    4.3993352429    0.5972549439
H        1.0708492572    1.9774668765    0.6338224947
H       -4.1026127927   -2.2667146870    1.7098925461
H       -7.4119113041   -1.1492013058    4.5970338879
28   

C       -0.7908487809    0.1986792716    0.6994362186
C       -1.8157895560   -0.7490502293    0.8221719262
C       -1.8781949400    1.6038988399    2.3531336242
C       -4.0580945481    0.5560275521    3.3260618367
C       -2.8907015866    0.6466173893    2.4679698792
C       -0.8037310844    1.3874765789    1.4603331163
C       -2.8543650417   -0.5038154540    1.7119159953
C       -4.6915295561   -0.6365995712    3.0422404410
C       -5.7436563493   -1.3296083416    3.8250237614
C        1.0375596732    2.6073557866    2.6586765722
C       -0.1944529663    3.7071932646    0.7494601867
C        0.3269249052    2.3861507699    1.3194890226
N       -3.9462193213   -1.2990309293    2.0382050440
O       -5.5533278557   -2.3220947437    4.5044438432
O       -6.9415028036   -0.7022688494    3.8115709996
H        0.0238007544    0.0035359543    0.0115722486
H       -1.7941896741   -1.6635888310    0.2431710023
H       -1.9209528441    2.4982049704    2.9622772044
H       -4.3407751588    1.2558959910    4.1027135403
H        0.3563116159    3.0331279496    3.4013475239
H        1.8810638506    3.2928201997    2.5297968909
H        1.4222696209    1.6564326779    3.0408789959
H       -0.9276620747    4.1615041435    1.4227141087
H       -0.6704839947    3.5335505284   -0.2208507950
H        0.6321450491    4.4102851652    0.6073733895
H        1.0652150652    1.9867478146    0.6159847830
H       -4.1178084138   -2.2412839396    1.6977975519
H       -7.5114825510   -1.2319585787    4.3913156680
28   

C       -0.7409144047    0.1692349690    0.8096635748
C       -1.7429439279   -0.7940620886    0.9852919861
C       -1.7922543886    1.5820404281    2.4807079320
C       -3.9463953113    0.5322985146    3.5148979507
C       -2.7843274454    0.6106044341    2.6464401460
C       -0.7479931935    1.3700431810    1.5513268515
C       -2.7529418873   -0.5516276753    1.9078601546
C       -4.5678453863   -0.6674623433    3.2654296198
C       -5.7607136132   -1.2733499419    3.9280683613
C        1.1326188111    2.6252956310    2.6392259726
C       -0.2263200398    3.7030392790    0.8045556716
C        0.3512400215    2.3915453455    1.3430217021
N       -3.8345559831   -1.3468131373    2.2642347704
O       -5.7207123935   -2.0011817551    4.8993623941
O       -6.9343356527   -0.9422543642    3.3438261990
H        0.0486765549   -0.0208062873    0.0917932770
H       -1.7300735140   -1.7143335829    0.4151910411
H       -1.8323443047    2.4887945666    3.0713636450
H       -4.2577467242    1.2717182888    4.2423082782
H        0.4853202557    3.0345607400    3.4205893898
H        1.9528342281    3.3285140181    2.4642133714
H        1.5580452381    1.6817042983    2.9955539109
H       -0.9255040421    4.1466020962    1.5197864384
H       -0.7562331125    3.5203441039   -0.1357280626
H        0.5781380644    4.4200109630    0.6131511895
H        1.0545509898    2.0063918931    0.5970051742
H       -4.0457814434   -2.2676700695    1.8904850274
H       -7.6149759019   -1.3888953914    3.8716882541
28   

C       -0.7091492890    0.0989715806    0.9149716889
C       -1.6958840122   -0.8699987866    1.1400840202
C       -1.7279256016    1.5385125126    2.5831307249
C       -3.8724605688    0.5156319156    3.6605215502
C       -2.7064843414    0.5626561615    2.7957462995
C       -0.7081092741    1.3161708814    1.6295440535
C       -2.6829397217   -0.6164514261    2.0843034151
C       -4.4942707223   -0.6959417128    3.4531348401
C       -5.8127149268   -1.1594621454    3.9537379226
C        1.2090982217    2.5936725599    2.6136296438
C       -0.2484028483    3.6544962332    0.8461499502
C        0.3667001416    2.3490504658    1.3590345812
N       -3.7653025496   -1.3995164416    2.4650217883
O       -6.0629183745   -1.5071615922    5.0908484677
O       -6.7349371079   -1.2824871721    2.9707011229
H        0.0591542161   -0.0972717081    0.1759929213
H       -1.6940431024   -1.7993833932    0.5848241170
H       -1.7656598187    2.4611982922    3.1487717547
H       -4.2172283589    1.3032080409    4.3192809344
H        0.5959948862    2.9960767797    3.4256168508
H        2.0114721995    3.3058372625    2.3971887553
H        1.6620949958    1.6552368049    2.9489140564
H       -0.9117670455    4.0976560294    1.5948990297
H       -0.8256538139    3.4644424910   -0.0643419309
H        0.5397141480    4.3762373064    0.6097665251
H        1.0343222234    1.9680958879    0.5788631101
H       -4.0319270560   -2.2903737860    2.0555648240
H       -7.5319504579   -1.6131179425    3.4147390291
28   

C       -0.7026130078    0.1241007448    0.9331236891
C       -1.6959468629   -0.8326617372    1.1813507507
C       -1.6877720424    1.5932658689    2.5953810069
C       -3.8328451403    0.6090382497    3.7041335985
C       -2.6733359924    0.6298793192    2.8303049589
C       -0.6811939000    1.3495818639    1.6332205059
C       -2.6694518064   -0.5585541780    2.1339304382
C       -4.4701540256   -0.6024412540    3.5213735214
C       -5.7970469325   -1.0163893167    4.0153400257
C        1.2703355013    2.6043372845    2.5743323720
C       -0.2087936300    3.6824394270    0.8357603469
C        0.3995747214    2.3693155641    1.3375243491
N       -3.7574210971   -1.3242913742    2.5344227992
O       -6.1430820753   -1.0740225870    5.1799780831
O       -6.6002760929   -1.4865272303    3.0304716500
H        0.0548152766   -0.0881322889    0.1873772990
H       -1.7100360764   -1.7683053551    0.6368782858
H       -1.7105673008    2.5230718950    3.1500842665
H       -4.1683913080    1.4122798429    4.3488625393
H        0.6783453852    3.0136863241    3.3984691606
H        2.0763455514    3.3071035401    2.3413369313
H        1.7190825981    1.6607112494    2.9006477668
H       -0.8491788296    4.1364120234    1.5978925778
H       -0.8084070840    3.4990842601   -0.0615402838
H        0.5838620999    4.3928452420    0.5809034194
H        1.0457765817    1.9791275685    0.5440057053
H       -4.0564529493   -2.2052852471    2.1250239942
H       -7.4164820444   -1.7542033256    3.4825312606
28   

C       -0.7185432964    0.1453915982    0.9037205324
C       -1.7220290760   -0.8037937726    1.1402984135
C       -1.6883408769    1.6049381483    2.5833885940
C       -3.8410039543    0.6292100642    3.6840221314
C       -2.6838816494    0.6492311162    2.8068718788
C       -0.6843145565    1.3621720019    1.6184143957
C       -2.6927712799   -0.5310169708    2.0960575637
C       -4.4920259588   -0.5742330348    3.4858596909
C       -5.8049862226   -0.9857437453    3.9977311689
C        1.2761922415    2.5902930572    2.5775799327
C       -0.1866722414    3.6965211948    0.8430124531
C        0.4076505010    2.3736501630    1.3357571768
N       -3.7876616448   -1.2907509373    2.4894501100
O       -6.2134288495   -0.8290928908    5.1335999578
O       -6.5195870975   -1.7063947831    3.0979981732
H        0.0369936330   -0.0660192383    0.1558325073
H       -1.7456104631   -1.7329460608    0.5851360662
H       -1.7011327369    2.5279568397    3.1496620513
H       -4.1645061819    1.4240956278    4.3453096550
H        0.6854242327    2.9990388554    3.4028871492
H        2.0898712993    3.2869514132    2.3530274145
H        1.7145360864    1.6397934582    2.8980186132
H       -0.8260062236    4.1495623052    1.6066013731
H       -0.7843840425    3.5263576051   -0.0581453158
H        0.6133936225    4.4018582850    0.5974159044
H        1.0531129950    1.9839596031    0.5414002435
H       -4.0987278970   -2.1664692528    2.0766484855
H       -7.3379555106   -1.9412193675    3.5645957409
28   

C       -0.7403454949    0.1702180916    0.8629786431
C       -1.7560285737   -0.7710022865    1.0783418578
C       -1.7069702578    1.6167238245    2.5558130880
C       -3.8732862278    0.6455670734    3.6338154792
C       -2.7145170667    0.6690211245    2.7584775726
C       -0.6981535985    1.3762708455    1.5952437304
C       -2.7310568537   -0.5010307960    2.0304748887
C       -4.5359977470   -0.5478606947    3.4122954464
C       -5.8264074028   -0.9786581975    3.9521444807
C        1.2661740944    2.5700635921    2.5905805557
C       -0.1656482387    3.7135193541    0.8542513009
C        0.4085125273    2.3782534919    1.3370397617
N       -3.8337520063   -1.2567731438    2.4094759190
O       -6.2991767223   -0.6495571103    5.0249264598
O       -6.4499809713   -1.8964119331    3.1706986971
H        0.0191171628   -0.0394087895    0.1185761315
H       -1.7847916433   -1.6925683323    0.5109095269
H       -1.7130854148    2.5310412764    3.1361603613
H       -4.1854091879    1.4266870609    4.3168192831
H        0.6715112048    2.9760151394    3.4144630733
H        2.0902138158    3.2597713384    2.3829665907
H        1.6901125939    1.6108394084    2.9043431403
H       -0.8083552379    4.1641381677    1.6164519943
H       -0.7552776508    3.5609681464   -0.0553404525
H        0.6448028181    4.4128139680    0.6260716403
H        1.0581485282    1.9907773474    0.5450076698
H       -4.1430917172   -2.1354224933    2.0007999733
H       -7.2667895255   -2.1120041132    3.6494215284
28   

C       -0.7424724513    0.2164520486    0.8118361980
C       -1.7697022007   -0.7160270422    1.0097444171
C       -1.6911120345    1.6429874472    2.5316585414
C       -3.8616785239    0.6727133667    3.6019861071
C       -2.7097392687    0.7037900165    2.7175969065
C       -0.6855637483    1.4081562479    1.5662877095
C       -2.7413325103   -0.4518958337    1.9669419503
C       -4.5400916984   -0.5068694271    3.3555514157
C       -5.7976079818   -0.9650496595    3.9413779777
C        1.2833787519    2.5726326026    2.5907562961
C       -0.1223272100    3.7447710722    0.8522114830
C        0.4346224051    2.4000104053    1.3281672225
N       -3.8492582612   -1.2042857551    2.3372967922
O       -6.3343521811   -0.5044209199    4.9328328499
O       -6.3297468728   -2.0337493889    3.2951020010
H        0.0149200516    0.0109394407    0.0641875889
H       -1.8089710504   -1.6271680490    0.4263278910
H       -1.6851010903    2.5456399706    3.1300026039
H       -4.1531782035    1.4343714164    4.3155374260
H        0.6865201229    2.9792773626    3.4126786409
H        2.1168217803    3.2546291178    2.3955363954
H        1.6939347381    1.6064317365    2.9008722024
H       -0.7685493666    4.1938256369    1.6123990270
H       -0.7044421218    3.6058824517   -0.0643867462
H        0.6966405036    4.4386375962    0.6383696018
H        1.0875566604    2.0126969189    0.5387750275
H       -4.1548106686   -2.0879509451    1.9361797131
H       -7.1404115822   -2.2396230247    3.7884568464
28   

C       -0.7819191786    0.2344677474    0.7772702393
C       -1.8239803060   -0.6845612663    0.9601145030
C       -1.7179912947    1.6568754816    2.5073608121
C       -3.9008748495    0.7017331899    3.5659915564
C       -2.7512417579    0.7309735908    2.6785079558
C       -0.7109336786    1.4170243578    1.5448249752
C       -2.7965062983   -0.4160177713    1.9151794784
C       -4.5963085683   -0.4641253137    3.3025064698
C       -5.8215452716   -0.9477713425    3.9326791651
C        1.2683499410    2.5402065776    2.5962841039
C       -0.1047016273    3.7504415788    0.8577559300
C        0.4270733016    2.3927633315    1.3253660711
N       -3.9126727055   -1.1597563071    2.2783024923
O       -6.4421167964   -0.3834280649    4.8158495214
O       -6.2440795675   -2.1388345843    3.4365057629
H       -0.0231858335    0.0249662317    0.0320933137
H       -1.8728189040   -1.5897164620    0.3681659239
H       -1.7004001303    2.5519053671    3.1168280895
H       -4.1728552738    1.4494343771    4.3017117005
H        0.6716408909    2.9489504781    3.4172685696
H        2.1141394384    3.2104903083    2.4139891407
H        1.6609886812    1.5648012329    2.9007556909
H       -0.7502606129    4.2022146469    1.6169038108
H       -0.6811954423    3.6292564297   -0.0648791636
H        0.7267778699    4.4333424513    0.6573574819
H        1.0802636334    2.0023522146    0.5377150903
H       -4.2107456809   -2.0525584674    1.8918954009
H       -7.0526760183   -2.3389843756    3.9356192689
28   

C       -0.7994848237    0.2664472116    0.7399884916
C       -1.8510706531   -0.6446473460    0.9072011796
C       -1.7286482374    1.6759067324    2.4843471947
C       -3.9174267811    0.7216335631    3.5317246204
C       -2.7712549842    0.7577623837    2.6400644966
C       -0.7199107910    1.4382645640    1.5229998971
C       -2.8246548718   -0.3787886734    1.8619319521
C       -4.6235517380   -0.4336223820    3.2503700097
C       -5.8116275527   -0.9527619262    3.9237487212
C        1.2641650361    2.5281352707    2.6014427917
C       -0.0832860847    3.7718174094    0.8664829243
C        0.4304723946    2.4036073304    1.3229369117
N       -3.9442373716   -1.1209391728    2.2176013202
O       -6.5321557814   -0.3307616817    4.6834922571
O       -6.1005639643   -2.2349948552    3.5841042425
H       -0.0392447239    0.0584254091   -0.0040674132
H       -1.9052758858   -1.5426829605    0.3049648138
H       -1.7035774668    2.5618342862    3.1067112466
H       -4.1728506604    1.4516285287    4.2907480257
H        0.6663113305    2.9349631638    3.4225374672
H        2.1187046615    3.1907438419    2.4323289031
H        1.6437589881    1.5452640712    2.8983789931
H       -0.7297901877    4.2218834902    1.6258465597
H       -0.6540739344    3.6668004831   -0.0616585224
H        0.7568706855    4.4479476718    0.6798245000
H        1.0852760014    2.0146174736    0.5359209749
H       -4.2287008606   -2.0231255862    1.8430861119
H       -6.9065133740   -2.4450012286    4.0834068861
28   

C       -0.8611233539    0.2760535565    0.7108673605
C       -1.9256338866   -0.6223082296    0.8646600699
C       -1.7672081172    1.6694181515    2.4800412922
C       -3.9605413343    0.7219725115    3.5239744369
C       -2.8222691562    0.7634202879    2.6227911793
C       -0.7635467671    1.4334924755    1.5129706296
C       -2.8938743786   -0.3582956639    1.8253521279
C       -4.6860709524   -0.4163111872    3.2232415021
C       -5.8386814728   -0.9680592267    3.9368512601
C        1.2287633447    2.4897065712    2.6133021801
C       -0.0916868902    3.7614801974    0.8779497463
C        0.4016756498    2.3840781815    1.3286004846
N       -4.0195362233   -1.0938779310    2.1753925509
O       -6.6632245739   -0.3301812168    4.5660720401
O       -5.9841492370   -2.3054897630    3.7582667307
H       -0.1045252185    0.0689422111   -0.0371474836
H       -1.9928730914   -1.5101006411    0.2487101807
H       -1.7275867609    2.5435881466    3.1180643359
H       -4.1913964725    1.4317555444    4.3094535112
H        0.6317484717    2.9003499264    3.4330721724
H        2.0934185993    3.1414085420    2.4534090791
H        1.5929733744    1.5000629831    2.9069817410
H       -0.7389518409    4.2135314522    1.6355132823
H       -0.6563373621    3.6698201309   -0.0553513690
H        0.7579928837    4.4286975365    0.7027160603
H        1.0568992414    1.9916710576    0.5436302433
H       -4.2970991089   -2.0004213265    1.8067874824
H       -6.7867207343   -2.5335795197    4.2549414975
28   

C       -0.8958434202    0.3007612173    0.6803725471
C       -1.9754799674   -0.5815840140    0.8209316213
C       -1.7866143611    1.6909617430    2.4596810370
C       -3.9938153491    0.7631082391    3.4915516086
C       -2.8566062739    0.8006015596    2.5892895956
C       -0.7827531832    1.4483327777    1.4945000549
C       -2.9432807401   -0.3113796263    1.7803970531
C       -4.7373286877   -0.3591525146    3.1767644894
C       -5.8680229722   -0.9306431795    3.9184847065
C        1.2198031754    2.4620432987    2.6171835051
C       -0.0673852622    3.7691341574    0.8830852110
C        0.3998146810    2.3802875392    1.3260809482
N       -4.0786593389   -1.0355720891    2.1227390276
O       -6.8039965676   -0.3109462785    4.3891141453
O       -5.8585749516   -2.2868308560    3.9318125824
H       -0.1391198344    0.0883020972   -0.0660171999
H       -2.0537486786   -1.4627420485    0.1968163807
H       -1.7346282386    2.5571295783    3.1076341017
H       -4.2058431909    1.4601546020    4.2934047722
H        0.6244142563    2.8766217864    3.4361447805
H        2.0964705313    3.1001352545    2.4681312459
H        1.5652299438    1.4641771238    2.9057025677
H       -0.7126231177    4.2256563650    1.6397018417
H       -0.6267192391    3.6941695380   -0.0548924985
H        0.7944431383    4.4235409889    0.7192754393
H        1.0538896065    1.9830022282    0.5426053812
H       -4.3522551164   -1.9441835093    1.7571974692
H       -6.6627470756   -2.5341126660    4.4163140320
28   

C       -0.9225882465    0.3168727281    0.6560094793
C       -2.0107829336   -0.5566379013    0.7845931799
C       -1.8016121346    1.6928546316    2.4521377103
C       -4.0162755048    0.7696781885    3.4731167595
C       -2.8801333506    0.8110480761    2.5698201332
C       -0.7992591647    1.4528981440    1.4846435010
C       -2.9766675364   -0.2892363525    1.7467873522
C       -4.7699200906   -0.3396920674    3.1436219910
C       -5.8940696780   -0.9315941741    3.8932503350
C        1.2088822630    2.4380258071    2.6240794570
C       -0.0601150835    3.7716115226    0.8966665845
C        0.3928473749    2.3749205835    1.3293665592
N       -4.1176812808   -1.0084260935    2.0803695589
O       -6.9383429236   -0.3764327842    4.1773857444
O       -5.7256720336   -2.2544826664    4.1336269836
H       -0.1670978159    0.1063547295   -0.0921847309
H       -2.0965598629   -1.4293530814    0.1497008132
H       -1.7415020583    2.5498867525    3.1114077951
H       -4.2164488333    1.4540907169    4.2885760397
H        0.6146709068    2.8515158549    3.4444256948
H        2.0921285578    3.0689229686    2.4834508622
H        1.5437854382    1.4345427899    2.9054426628
H       -0.7046050522    4.2270061108    1.6546041857
H       -0.6161132365    3.7097409380   -0.0442500925
H        0.8081280587    4.4197680733    0.7421792697
H        1.0462974340    1.9783671851    0.5449917335
H       -4.3916520574   -1.9114066239    1.7025550054
H       -6.5352087572   -2.5280242485    4.5940896410
28   

C       -0.9246674682    0.2880000621    0.6435301919
C       -1.9992243818   -0.6038875839    0.7579300049
C       -1.8371794601    1.6343515384    2.4456400368
C       -4.0482813151    0.6699306682    3.4391282235
C       -2.9026431137    0.7347714121    2.5487015007
C       -0.8247617400    1.4184638679    1.4827316078
C       -2.9750500865   -0.3601563123    1.7163006036
C       -4.7772240244   -0.4476294908    3.0966810807
C       -5.9288305161   -1.0575531594    3.8076997447
C        1.1706265495    2.4090851182    2.6359578498
C       -0.1198621433    3.7598943450    0.9378424369
C        0.3529034470    2.3610659065    1.3418886907
N       -4.1080048451   -1.0988061747    2.0332466132
O       -7.0651516508   -0.6275459136    3.8273465415
O       -5.6286864933   -2.2533787943    4.3661842367
H       -0.1615086458    0.0962413385   -0.1019284327
H       -2.0671976282   -1.4720259632    0.1146663442
H       -1.7950306063    2.4869555135    3.1119827173
H       -4.2708936469    1.3503262824    4.2519076905
H        0.5715623286    2.7958677292    3.4657703663
H        2.0440952010    3.0559098499    2.5071712884
H        1.5209820437    1.4049419785    2.8953457076
H       -0.7673376739    4.1924905939    1.7064673230
H       -0.6782293426    3.7090215268   -0.0023285932
H        0.7394046134    4.4221230304    0.7931255171
H        1.0097702444    1.9895106625    0.5481721670
H       -4.3739708382   -1.9902572024    1.6246543994
H       -6.4573182133   -2.5562464861    4.7703590704
28   

C       -0.8217969663    0.2400551113    0.7080041776
C       -1.8624545858   -0.6893297134    0.8349886554
C       -1.7635746975    1.5568309064    2.5171148490
C       -3.9601724292    0.5444208695    3.4978403269
C       -2.7970239820    0.6217175190    2.6307386632
C       -0.7540434996    1.3752452648    1.5439512566
C       -2.8371047273   -0.4778493526    1.8021160822
C       -4.6512399243   -0.5942563146    3.1606607866
C       -5.9479945077   -1.1089150896    3.6923408626
C        1.2361652070    2.4194874290    2.6491032081
C       -0.1534841633    3.7538737827    1.0173711327
C        0.3808893957    2.3654033110    1.3805932272
N       -3.9578257469   -1.2386885400    2.1092307164
O       -7.0409112536   -0.8423953158    3.2349022983
O       -5.8117750393   -1.9273966714    4.7599943766
H       -0.0626382683    0.0766689005   -0.0482301690
H       -1.9100873789   -1.5565456044    0.1886543341
H       -1.7494537350    2.4160542999    3.1760687743
H       -4.2459137749    1.2614173930    4.2574948397
H        0.6479630037    2.7657304271    3.5042610032
H        2.0800049918    3.1018827261    2.5073003215
H        1.6318843636    1.4244338930    2.8762452585
H       -0.7882445584    4.1521743017    1.8145276223
H       -0.7414926459    3.6996489857    0.0956185974
H        0.6772424135    4.4478585046    0.8555768362
H        1.0243827432    2.0326870911    0.5591637342
H       -4.2438567187   -2.0939236601    1.6412118243
H       -6.7168097650   -2.1770583779    5.0049002471
28   

C       -0.7439256373    0.1572932111    0.7589746237
C       -1.7460395552   -0.8104536973    0.9106069630
C       -1.6912257056    1.4398060371    2.5891282974
C       -3.8513081735    0.3746548659    3.5871694686
C       -2.6873658832    0.4681752837    2.7247150520
C       -0.6992253056    1.2956465448    1.5923548138
C       -2.7061669974   -0.6339583456    1.8992567000
C       -4.5177212593   -0.7890634660    3.2618941724
C       -5.8931500848   -1.1982705473    3.6370293352
C        1.2926297298    2.4020260486    2.6248753091
C       -0.2159163385    3.7073350490    1.0779227368
C        0.3858881756    2.3342700773    1.3939608323
N       -3.8084726345   -1.4199647192    2.2124563807
O       -6.8444208643   -1.1888765178    2.8768579809
O       -6.0403188597   -1.4929480330    4.9485469506
H        0.0001983048    0.0239601400   -0.0178094325
H       -1.7804649698   -1.6758941219    0.2610554033
H       -1.6985571473    2.3030943398    3.2428462854
H       -4.1830508238    1.1176661733    4.3018673362
H        0.7278027403    2.7086567854    3.5104331966
H        2.1011785714    3.1209399216    2.4599425582
H        1.7374169512    1.4202226042    2.8158910511
H       -0.8267150073    4.0713637074    1.9093968669
H       -0.8436981953    3.6449533020    0.1833090187
H        0.5803559835    4.4342333860    0.8894023349
H        1.0041575280    2.0401103106    0.5391355059
H       -4.1146523344   -2.2441475588    1.7024196814
H       -6.9828574563   -1.6956345596    5.0585067670
28   

C       -0.7579465486    0.1641662514    0.7396897369
C       -1.7583618893   -0.8059098785    0.8876113242
C       -1.6846082435    1.4183061462    2.5998615491
C       -3.8344114143    0.3388104427    3.6042226102
C       -2.6790894493    0.4445122947    2.7316978736
C       -0.7040794655    1.2897803290    1.5897018039
C       -2.7072980277   -0.6447499201    1.8895270535
C       -4.5059452877   -0.8219427994    3.2684075845
C       -5.8724523689   -1.2385256555    3.6315096434
C        1.2965752268    2.3858084985    2.6170218958
C       -0.2290764379    3.7081796425    1.1016534351
C        0.3779019699    2.3322039916    1.3942885761
N       -3.8073541900   -1.4343759005    2.2013684056
O       -6.7562650720   -1.4747885331    2.8241463212
O       -6.1182771807   -1.2205494033    4.9616020275
H       -0.0227090801    0.0429180172   -0.0474614265
H       -1.8004746431   -1.6612108888    0.2251788151
H       -1.6849388139    2.2717168101    3.2664751551
H       -4.1605192244    1.0714972998    4.3322060491
H        0.7401528032    2.6806552721    3.5118483071
H        2.1025565549    3.1078364573    2.4531277104
H        1.7444313133    1.4023060730    2.7913717414
H       -0.8324672755    4.0604161038    1.9435596880
H       -0.8653636156    3.6561745754    0.2123958837
H        0.5641608627    4.4388147675    0.9148024052
H        0.9882064613    2.0498684669    0.5298089791
H       -4.1307807301   -2.2420528426    1.6748395612
H       -7.0537221351   -1.4634387830    5.0491602061
28   

C       -0.7797385302    0.1994930204    0.7074115864
C       -1.7853618629   -0.7663928329    0.8463603471
C       -1.6867336045    1.4299940372    2.5930845905
C       -3.8314042601    0.3422325033    3.6013901004
C       -2.6862618491    0.4602426471    2.7164782338
C       -0.7133584638    1.3111160839    1.5747643924
C       -2.7266045605   -0.6152340524    1.8569252092
C       -4.5104849702   -0.8114995654    3.2529426883
C       -5.8466392577   -1.2737979431    3.6447136256
C        1.2973668038    2.3808103891    2.6116570630
C       -0.2233623221    3.7313716597    1.1161791110
C        0.3755528448    2.3482480302    1.3904103422
N       -3.8258824471   -1.4060690168    2.1674930196
O       -6.6656075215   -1.7429806067    2.8685574269
O       -6.1574070388   -1.0353041178    4.9399880675
H       -0.0496301632    0.0854120973   -0.0855630807
H       -1.8363568169   -1.6118469881    0.1719902132
H       -1.6763809270    2.2719573021    3.2740310418
H       -4.1416058553    1.0567194195    4.3541464436
H        0.7452194668    2.6687852637    3.5113451798
H        2.1079429866    3.0991959552    2.4545328297
H        1.7388962856    1.3922629496    2.7731801796
H       -0.8231938554    4.0764333026    1.9635931619
H       -0.8615299735    3.6942877392    0.2275230705
H        0.5740170766    4.4594084278    0.9370362747
H        0.9822695272    2.0725590609    0.5212714733
H       -4.1575898116   -2.2098101783    1.6391426647
H       -7.0704198764   -1.3480468144    5.0422278612
28   

C       -0.8191437021    0.2272823416    0.6715758961
C       -1.8334262038   -0.7304132105    0.8032363221
C       -1.7038810227    1.4415352755    2.5784253868
C       -3.8450890314    0.3524985424    3.5947048168
C       -2.7118442067    0.4796951824    2.6951706429
C       -0.7369688326    1.3263356517    1.5534592273
C       -2.7672373409   -0.5837405549    1.8212105685
C       -4.5345213537   -0.7925578969    3.2365307664
C       -5.8312240936   -1.3082785185    3.6743937770
C        1.2859683984    2.3634038732    2.6014526243
C       -0.2198968487    3.7442844108    1.1185285022
C        0.3639790009    2.3524598405    1.3797398077
N       -3.8663945467   -1.3734390568    2.1341179957
O       -6.5694137211   -1.9889497970    2.9756171731
O       -6.2046978895   -0.9014955268    4.9101959613
H       -0.0935748036    0.1157026389   -0.1259068819
H       -1.8951582689   -1.5677079844    0.1196250495
H       -1.6799571431    2.2729168247    3.2719244755
H       -4.1330549254    1.0473613728    4.3743046757
H        0.7373070834    2.6497575966    3.5037750216
H        2.1048200872    3.0737581905    2.4508277435
H        1.7161417335    1.3684652090    2.7542118118
H       -0.8168991109    4.0870787756    1.9688686726
H       -0.8576477939    3.7224113613    0.2290758447
H        0.5853066998    4.4655157308    0.9470881843
H        0.9680722253    2.0781565037    0.5083374814
H       -4.1998206325   -2.1830215520    1.6150595067
H       -7.0835737189   -1.2893443840    5.0484033795
28   

C       -0.8908747431    0.2300990720    0.6208634411
C       -1.9188713847   -0.7134168279    0.7474836750
C       -1.7422721359    1.4321055360    2.5507068046
C       -3.8808115058    0.3506523709    3.5824137867
C       -2.7634876813    0.4838183823    2.6633754106
C       -0.7848737491    1.3155526071    1.5169106857
C       -2.8420926033   -0.5664231226    1.7749207853
C       -4.5873763992   -0.7815025797    3.2157750104
C       -5.8371037687   -1.3473621823    3.7156515751
C        1.2532108891    2.3147247307    2.5758926377
C       -0.2276559025    3.7250718341    1.0953547965
C        0.3339324088    2.3235396334    1.3518060624
N       -3.9432586240   -1.3506563921    2.0936535265
O       -6.4818163694   -2.2064048139    3.1287967693
O       -6.2681311668   -0.8125040558    4.8822365147
H       -0.1720641033    0.1169876799   -0.1825013590
H       -1.9972039224   -1.5420408623    0.0550511056
H       -1.6982886739    2.2519857372    3.2568097393
H       -4.1368768992    1.0229420515    4.3924193157
H        0.7078634489    2.6074810433    3.4781428324
H        2.0842824259    3.0116606918    2.4295162338
H        1.6663328081    1.3122237469    2.7263188613
H       -0.8229342314    4.0720468096    1.9452362190
H       -0.8622526608    3.7169769214    0.2034206158
H        0.5889699789    4.4348959171    0.9305525920
H        0.9361842043    2.0432380647    0.4810375485
H       -4.2759750336   -2.1706005667    1.5901475415
H       -7.1027093937   -1.2687482552    5.0754394473
28   

C       -0.9242981344    0.2957631902    0.5687670437
C       -1.9643004712   -0.6367167206    0.6774075720
C       -1.7570471341    1.4679612880    2.5249651148
C       -3.8931746733    0.3776671001    3.5531632264
C       -2.7894559111    0.5299501267    2.6205540432
C       -0.8026224098    1.3604746731    1.4874098484
C       -2.8834675829   -0.4997279812    1.7098119927
C       -4.6110752842   -0.7411827637    3.1681267914
C       -5.8023309394   -1.3745190379    3.7238753191
C        1.2434415613    2.3144845848    2.5756825780
C       -0.2071453943    3.7656576142    1.1045747975
C        0.3328210950    2.3532171285    1.3453707779
N       -3.9849730079   -1.2852652058    2.0236562584
O       -6.3227331952   -2.3789757096    3.2558742072
O       -6.3065837595   -0.7606171257    4.8201213995
H       -0.2068649483    0.1888044335   -0.2366681681
H       -2.0524081930   -1.4517029295   -0.0298829541
H       -1.6990275467    2.2699955994    3.2502942539
H       -4.1200566954    1.0162631091    4.3983812858
H        0.6968253212    2.6040321222    3.4781786116
H        2.0859930787    3.0005027590    2.4440077997
H        1.6404524571    1.3040191596    2.7159389167
H       -0.8047042138    4.1081942618    1.9546794814
H       -0.8345245654    3.7787629372    0.2076182941
H        0.6204687772    4.4663503554    0.9564575648
H        0.9375649986    2.0760033243    0.4753415617
H       -4.3057215756   -2.1159644445    1.5298939606
H       -7.0822978370   -1.2878550867    5.0697343690
