15   

C        2.3735518359   -0.8682187565   -1.0115462200
C        1.3057966043   -1.3292230266   -0.2891817577
C        3.4829494026   -1.6362979520   -1.7090710822
C       -0.8569968413   -0.4582632806   -1.1962985281
C       -0.0969922014   -1.7006085788   -0.7412463602
H        2.7532043043    0.0804276439   -0.6469250439
H        1.2955817092   -0.9879366372    0.7405626153
H        4.3814498394   -1.0177583568   -1.7934537429
H        3.1604960273   -1.9283536865   -2.7126547972
H        3.7285711128   -2.5388965603   -1.1418358039
H       -0.3411929699    0.0196609360   -2.0348269234
H       -0.9340238333    0.2591091920   -0.3729475379
H       -1.8670767161   -0.7332799070   -1.5148764026
H       -0.6347820530   -2.1726514581    0.0872275918
H       -0.0377171382   -2.4222264057   -1.5622848487
15   

C        2.4056407375   -0.8120111949   -0.9165608482
C        1.3162227935   -1.2303407743   -0.2171538569
C        3.3824520756   -1.6530253005   -1.7135338488
C       -0.8738015013   -0.4707951743   -1.1483752365
C       -0.0284022049   -1.6789077656   -0.7560494253
H        2.9111158252    0.0292203299   -0.4540757496
H        1.2408399945   -0.8367346264    0.7910496169
H        3.3328282790   -1.3803820992   -2.7716881214
H        3.1388535381   -2.7149824712   -1.6124653690
H        4.4030281348   -1.4913608990   -1.3539988895
H       -0.3676192508    0.1124140635   -1.9239640161
H       -1.0441858310    0.1707195072   -0.2779238618
H       -1.8430654386   -0.8014997008   -1.5338138447
H       -0.5526350540   -2.2613534898    0.0082863481
H        0.1227399142   -2.3225278370   -1.6286626591
15   

C        2.4586566581   -0.7799995848   -0.8202286628
C        1.3375753500   -1.1406327736   -0.1543898557
C        3.3012202945   -1.6572509270   -1.7196575644
C       -0.8881517584   -0.4952838004   -1.0791076128
C        0.0474580380   -1.6562206776   -0.7552464257
H        3.0359772340    0.0001478705   -0.3354183485
H        1.2102716556   -0.6947575347    0.8264564071
H        3.2219962599   -1.3148020677   -2.7555268499
H        2.9620605989   -2.6962333248   -1.6655968509
H        4.3504699385   -1.6151591181   -1.4126677578
H       -0.4169768700    0.1817463227   -1.7986945876
H       -1.1275325833    0.0653438215   -0.1700411231
H       -1.8189224520   -0.8743127800   -1.5120504406
H       -0.4381161588   -2.3370241673   -0.0489252484
H        0.2643381786   -2.2164203807   -1.6705272495
15   

C        2.5138212965   -0.7852841050   -0.7248321681
C        1.3526283772   -1.0710969314   -0.1035017083
C        3.2401527660   -1.6516475141   -1.7252620886
C       -0.8781018073   -0.5175350016   -1.0652786528
C        0.1027505786   -1.6384091936   -0.7347261905
H        3.1498373650   -0.0734692239   -0.2093625343
H        1.1984234781   -0.5976180744    0.8603797310
H        3.1345659324   -1.2309929610   -2.7295202336
H        2.8316691224   -2.6667385955   -1.7228843554
H        4.3038123959   -1.7042671637   -1.4747277984
H       -0.4241491547    0.1868012353   -1.7696370859
H       -1.1598238860    0.0229179167   -0.1561822395
H       -1.7823157286   -0.9336027698   -1.5199912422
H       -0.3647053580   -2.3473916727   -0.0441075092
H        0.3577902376   -2.1790886184   -1.6516785184
15   

C        2.5561628544   -0.8140512040   -0.6487534651
C        1.3571190314   -1.0128242777   -0.0739639107
C        3.1924969110   -1.6343942060   -1.7421561437
C       -0.8446795375   -0.5311782497   -1.1278144301
C        0.1331565492   -1.6246623341   -0.7090658792
H        3.2374748480   -0.1715252765   -0.1011800602
H        1.1937114915   -0.5269925030    0.8821858154
H        3.0575178660   -1.1386046685   -2.7078664774
H        2.7451179647   -2.6315354256   -1.7895240180
H        4.2637637339   -1.7465706118   -1.5507691652
H       -0.3760771825    0.1364069084   -1.8578405572
H       -1.1541673876    0.0565919274   -0.2579089550
H       -1.7339087661   -0.9785935716   -1.5823697885
H       -0.3507215055   -2.2951738530    0.0081603196
H        0.4120545861   -2.2164828418   -1.5861095709
15   

C        2.5950509397   -0.8605971049   -0.5973056442
C        1.3552621282   -0.9499445984   -0.0894228483
C        3.1754760651   -1.6369920841   -1.7499758663
C       -0.8783351559   -0.5408916323   -1.1033524391
C        0.1460719659   -1.6006631993   -0.7101709436
H        3.3039233443   -0.2763009578   -0.0202738026
H        1.1798283525   -0.4217293410    0.8418135548
H        3.0191994086   -1.0911190328   -2.6850083026
H        2.7076289405   -2.6224240511   -1.8301632951
H        4.2499506674   -1.7792176467   -1.6013475417
H       -0.4468362495    0.1483946124   -1.8361308237
H       -1.1948263963    0.0290052024   -0.2241877319
H       -1.7578661635   -1.0175769364   -1.5469634771
H       -0.3012015949   -2.2934250794    0.0096607360
H        0.4284281198   -2.1752676779   -1.5971635317
15   

C        2.6215789214   -0.9209637067   -0.5384793496
C        1.3553191364   -0.8997938485   -0.0946607957
C        3.1620882680   -1.6334934833   -1.7499135504
C       -0.8294959331   -0.5455171913   -1.2310921091
C        0.1518582677   -1.5814066917   -0.6922834593
H        3.3363686165   -0.3265520705    0.0206281640
H        1.1745662248   -0.3307635262    0.8111346852
H        4.0925686983   -1.1607130449   -2.0777926622
H        2.4456049280   -1.5903197621   -2.5754052295
H        3.3657817903   -2.6808930065   -1.5086483486
H       -0.3558620453    0.0544964096   -2.0143854028
H       -1.1604770210    0.1190004082   -0.4267052168
H       -1.7062795237   -1.0458005635   -1.6536976586
H       -0.3412226215   -2.1804693581    0.0798330635
H        0.4505002291   -2.2599457505   -1.4968746245
15   

C        2.6382275601   -0.9874289253   -0.4970521143
C        1.3537414163   -0.8493666195   -0.1314755761
C        3.1723854545   -1.6360527949   -1.7471626238
C       -0.8577681807   -0.5480848302   -1.2343481733
C        0.1500260188   -1.5587287161   -0.6965001268
H        3.3644691183   -0.4463581681    0.1001854911
H        1.1705695022   -0.2397389341    0.7470324643
H        4.1017579436   -1.1473278208   -2.0542121311
H        2.4521053734   -1.5500618717   -2.5660927184
H        3.3761536356   -2.6947489677   -1.5617730610
H       -0.4085550824    0.0455192623   -2.0366606672
H       -1.1849113317    0.1249414591   -0.4355071273
H       -1.7338443628   -1.0697627206   -1.6318736635
H       -0.3201136522   -2.1514275833    0.0946146134
H        0.4453550403   -2.2463894250   -1.4946767329
15   

C        2.6493203642   -1.0582482440   -0.4696822067
C        1.3591320631   -0.8036372281   -0.1897052184
C        3.2062787545   -1.6417884333   -1.7433231483
C       -0.9069136281   -0.5466104553   -1.1963230800
C        0.1462692589   -1.5359306173   -0.7078342462
H        3.3755078712   -0.5664039249    0.1687970478
H        1.1768943316   -0.1404433027    0.6493476760
H        4.1433458346   -1.1419919915   -2.0060236186
H        2.5010692059   -1.5097504212   -2.5693745698
H        3.4017638421   -2.7099580222   -1.6110421796
H       -0.5060588794    0.0609701810   -2.0136844798
H       -1.2160099368    0.1147637132   -0.3808127991
H       -1.7863524818   -1.0871042180   -1.5598959419
H       -0.2760219151   -2.1444564632    0.0981265013
H        0.4251883466   -2.2100594242   -1.5235469767
15   

C        2.6547186892   -1.1314100546   -0.4575390815
C        1.3706826846   -0.7701340745   -0.2670733459
C        3.2662222370   -1.6460291784   -1.7389919245
C       -0.9579008666   -0.5448084064   -1.1434102952
C        0.1383665772   -1.5181182867   -0.7216335366
H        3.3674003771   -0.6844204156    0.2274781798
H        1.1955454338   -0.0459341802    0.5215911501
H        4.2126736697   -1.1338558391   -1.9360656871
H        2.5930119126   -1.4700385732   -2.5835081536
H        3.4566023529   -2.7201299161   -1.6570601280
H       -0.6136358398    0.0748119138   -1.9774123456
H       -1.2336046131    0.1057755631   -0.3075980723
H       -1.8460769421   -1.0990180476   -1.4623994723
H       -0.2267621280   -2.1420212912    0.1003523237
H        0.3862017609   -2.1775906869   -1.5594154939
15   

C        2.6322763615   -1.2128152787   -0.4682338122
C        1.3606485415   -0.7654941447   -0.3585020237
C        3.3354913951   -1.6467012173   -1.7357276380
C       -1.0258504820   -0.5335532551   -1.0810611960
C        0.0932923599   -1.5084043168   -0.7276899144
H        3.3148431917   -0.8082980184    0.2717155630
H        1.2063616170    0.0182699619    0.3757663745
H        4.2891171783   -1.1202004641   -1.8374748020
H        2.7171041564   -1.4230867142   -2.6104244673
H        3.5274405607   -2.7232143391   -1.7064531653
H       -0.7345888437    0.0818509906   -1.9381053745
H       -1.2459335023    0.1208981378   -0.2319585789
H       -1.9338939416   -1.0867025447   -1.3403896776
H       -0.2181770776   -2.1317638724    0.1165120851
H        0.2872455353   -2.1672998407   -1.5802208966
15   

C        2.6108296485   -1.2923018076   -0.5147432211
C        1.3471520620   -0.7909623224   -0.4775920429
C        3.4428644883   -1.6432349386   -1.7320459790
C       -1.0950599731   -0.5178345519   -0.9945043005
C        0.0363365049   -1.5098985856   -0.7402647845
H        3.2410780105   -0.9171123118    0.2847695771
H        1.2236963291    0.0616924604    0.1820387776
H        4.3929764654   -1.1011704973   -1.7108818808
H        2.9065706518   -1.3757192901   -2.6475636003
H        3.6487255492   -2.7174350356   -1.7465725637
H       -0.8675505572    0.0977706393   -1.8705521210
H       -1.2351634834    0.1352011668   -0.1276173163
H       -2.0290091179   -1.0573311952   -1.1800765903
H       -0.2109509732   -2.1376405186    0.1217484729
H        0.1491415358   -2.1626966071   -1.6118548309
15   

C        2.5863756649   -1.3695261418   -0.5843765006
C        1.3240329274   -0.8417411049   -0.6107319495
C        3.5568764243   -1.6376178147   -1.7219315120
C       -1.1542551528   -0.4992754452   -0.9063400261
C       -0.0303147194   -1.5212723827   -0.7560024768
H        3.1352126707   -1.1089392297    0.3145335879
H        1.2380304972    0.0741721022   -0.0354131013
H        3.4484205765   -0.8721323216   -2.4959194474
H        3.3519155097   -2.6167179300   -2.1644296558
H        4.5878414820   -1.6249555850   -1.3559003498
H       -0.9889976369    0.1144384959   -1.7975943474
H       -1.2011604520    0.1529270586   -0.0288873576
H       -2.1144186845   -1.0139781394   -1.0106824548
H       -0.2159295857   -2.1505656424    0.1202373212
H       -0.0135872529   -2.1689957154   -1.6383617134
