26   

C        0.3833039231   -0.4961921778   -0.3399102214
C        7.4795932364   -0.2461206259    4.7883798777
C        1.5796887987    0.1762238337   -0.0742115356
C       -0.1360144957   -1.3877824688    0.6027421825
C        6.9671839252   -0.6875852192    3.5650185719
C        6.6066201245    0.1751805996    5.7951801818
C        2.2544492304   -0.0445426043    1.1325691374
C        0.5399935032   -1.6030498657    1.8093915917
C        5.5836936733   -0.7062958517    3.3506208398
C        5.2240150142    0.1516938089    5.5779167633
C        1.7419217659   -0.9349446795    2.0873292042
C        4.6975707677   -0.2883288725    4.3541982531
C        2.4376097912   -1.1515483669    3.3572829463
C        3.2500796820   -0.3257621338    4.1367681764
H       -0.1412099992   -0.3255152168   -1.2732789681
H        8.5505397048   -0.2321591074    4.9566206101
H        1.9841247790    0.8712083446   -0.8011999798
H       -1.0637251388   -1.9110991146    0.4009137034
H        7.6406753369   -1.0184658841    2.7827053124
H        6.9997198908    0.5179758222    6.7455511739
H        3.1791326829    0.4841028358    1.3342595544
H        0.1262954931   -2.2926896758    2.5358871980
H        5.1929641044   -1.0546487890    2.4013246461
H        4.5553881455    0.4757444715    6.3668856774
H        2.3066471135   -2.1433997941    3.7732231590
H        2.6990362088    0.4356819917    4.6757309475
26   

C        0.6188707765   -0.5015163089   -0.3404998481
C        7.3975165523   -0.1895056523    4.5746701362
C        1.7690872284    0.1881668040    0.0528611245
C        0.0251739952   -1.4158957696    0.5336116463
C        6.7884945168   -0.6964082993    3.4233492272
C        6.6082199709    0.2577217517    5.6375122753
C        2.3232873216   -0.0374922827    1.3185701616
C        0.5818247536   -1.6381915009    1.7985287437
C        5.3923793554   -0.7551601046    3.3367910151
C        5.2127108048    0.1966379057    5.5474692187
C        1.7370586981   -0.9534901319    2.2057626523
C        4.5882051539   -0.3088178810    4.3969351591
C        2.3031591079   -1.1803296901    3.5392687423
C        3.1259291432   -0.3847065777    4.3186123963
H        0.1871560655   -0.3260666722   -1.3194026839
H        8.4785600562   -0.1456020979    4.6441479830
H        2.2308827906    0.9011359828   -0.6205770225
H       -0.8682559112   -1.9515238262    0.2334176818
H        7.3969234602   -1.0478734282    2.5978888329
H        7.0764205326    0.6497364547    6.5332491500
H        3.2107814760    0.5088632186    1.6166328848
H        0.1097544025   -2.3460923235    2.4697112826
H        4.9305452370   -1.1577519673    2.4425750570
H        4.6110418510    0.5418487836    6.3801065546
H        2.0528600765   -2.1338156445    3.9888987869
H        2.5945401526    0.3047247817    4.9637965144
26   

C        0.8385567974   -0.4905490909   -0.3317120239
C        7.3150127124   -0.1537944228    4.3740005670
C        1.9048629596    0.2505757365    0.1844743522
C        0.2188677168   -1.4590702107    0.4619493005
C        6.6349296403   -0.7647955575    3.3171721445
C        6.5960393086    0.3626725387    5.4548743350
C        2.3487890388    0.0231330695    1.4925578673
C        0.6668157986   -1.6852771503    1.7685989540
C        5.2384112168   -0.8593355551    3.3431987334
C        5.1996893323    0.2683155368    5.4764611598
C        1.7372670033   -0.9493023998    2.3005710355
C        4.5026497956   -0.3418679163    4.4217904282
C        2.1831580841   -1.1832362847    3.6795195389
C        3.0394918692   -0.4517754391    4.4675231481
H        0.4915190697   -0.3129012503   -1.3433456495
H        8.3967250811   -0.0831158874    4.3567206603
H        2.3869840061    1.0051767774   -0.4264512018
H       -0.6110299851   -2.0339112189    0.0669168549
H        7.1885684113   -1.1696271259    2.4777141809
H        7.1196661454    0.8343204524    6.2786375185
H        3.1710604057    0.6117989663    1.8829099409
H        0.1740072328   -2.4363347949    2.3747519658
H        4.7247518419   -1.3440107122    2.5208372588
H        4.6549100705    0.6689966262    6.3232435642
H        1.7952854961   -2.0787851685    4.1502396943
H        2.5496041336    0.1470571624    5.2261007672
26   

C        1.0328927996   -0.4710536654   -0.3081002461
C        7.2298948784   -0.1366153249    4.1972983010
C        2.0003313259    0.3252938004    0.3101970853
C        0.4133871770   -1.4945834021    0.4131416340
C        6.5034134587   -0.8516185761    3.2415813023
C        6.5648308079    0.4529745999    5.2751036573
C        2.3446429285    0.0990454148    1.6481112455
C        0.7635488607   -1.7210738612    1.7492401010
C        5.1148194973   -0.9781929977    3.3662324493
C        5.1757917596    0.3284683684    5.3940012443
C        1.7331473021   -0.9291370042    2.3847261861
C        4.4319337776   -0.3872667625    4.4424104714
C        2.0722477920   -1.1659128237    3.7954234415
C        2.9765767456   -0.5276293742    4.5951040238
H        0.7622566130   -0.2938920683   -1.3428691218
H        8.3058560654   -0.0416882717    4.1041720123
H        2.4831928940    1.1215647611   -0.2446548304
H       -0.3408155037   -2.1122182781   -0.0611054752
H        7.0148009379   -1.3120213213    2.4039805268
H        7.1248092314    1.0050413534    6.0213282672
H        3.0915364733    0.7301774342    2.1160050390
H        0.2718481217   -2.5162617823    2.2971495306
H        4.5661440074   -1.5424024587    2.6207615074
H        4.6740523078    0.7880645134    6.2374040780
H        1.5340842324   -1.9731581962    4.2780460666
H        2.5479041950   -0.0470484268    5.4665807199
26   

C        1.2068013242   -0.4515407310   -0.2812606525
C        7.1495649538   -0.1240913539    4.0397075186
C        2.0738107743    0.3953590077    0.4141214606
C        0.6005080929   -1.5203110110    0.3834834127
C        6.3996643596   -0.9324677323    3.1813942542
C        6.5209117492    0.5277701446    5.1034883592
C        2.3297738402    0.1750327428    1.7726433726
C        0.8642024559   -1.7415914019    1.7401738861
C        5.0245679646   -1.0909572580    3.3902804939
C        5.1445793398    0.3723970261    5.3051309156
C        1.7308564102   -0.8981437000    2.4529201201
C        4.3782722717   -0.4382306034    4.4529855975
C        1.9778081076   -1.1317102303    3.8850696819
C        2.9363932139   -0.6092100946    4.6942701585
H        1.0040164345   -0.2789257280   -1.3321816076
H        8.2154549573   -0.0045333526    3.8818018500
H        2.5476356897    1.2256216018   -0.0969292235
H       -0.0762458899   -2.1773548216   -0.1508083920
H        6.8821695765   -1.4398711569    2.3538998153
H        7.0993904277    1.1524427002    5.7745455369
H        3.0004759886    0.8432290867    2.3006846959
H        0.3852890645   -2.5729411663    2.2439452936
H        4.4562156102   -1.7252612711    2.7196067189
H        4.6702286548    0.8819533262    6.1355730339
H        1.2931169902   -1.8162640037    4.3719509294
H        2.5824951779   -0.2754354242    5.6626809458
26   

C        1.3461345159   -0.4384851661   -0.2495896203
C        7.0740490926   -0.1158235881    3.9182128462
C        2.1328482070    0.4459865876    0.4931653034
C        0.7477955981   -1.5319668637    0.3817053790
C        6.3168449267   -0.9902639680    3.1340642820
C        6.4680631198    0.5706305552    4.9735840595
C        2.3157816781    0.2385398955    1.8654029366
C        0.9398457166   -1.7404146248    1.7524311851
C        4.9575524320   -1.1803337606    3.4092615093
C        5.1067390587    0.3839549962    5.2403718547
C        1.7244372075   -0.8588764594    2.5116147502
C        4.3346705475   -0.4932925287    4.4635820812
C        1.8974717575   -1.0806789140    3.9581562965
C        2.9080072388   -0.6951200967    4.7726542423
H        1.1997523681   -0.2761540922   -1.3114494561
H        8.1279750746    0.0285260114    3.7090978410
H        2.6014784012    1.2946231791    0.0082155450
H        0.1331743754   -2.2182575604   -0.1895907515
H        6.7811038258   -1.5236092148    2.3124916871
H        7.0524836048    1.2466709630    5.5872249985
H        2.9258430803    0.9328384107    2.4319785478
H        0.4697822955   -2.5911968061    2.2315218284
H        4.3807822521   -1.8633313337    2.7960042054
H        4.6478452491    0.9207781307    6.0622936300
H        1.0887644927   -1.6131561866    4.4451971860
H        2.6302705140   -0.5297229208    5.8071852133
26   

C        1.4393337571   -0.4382096636   -0.2215058373
C        7.0156586110   -0.1044847142    3.8408914569
C        2.1859855912    0.4663666426    0.5384850280
C        0.8297813955   -1.5303679779    0.4016974598
C        6.2607333161   -1.0116283728    3.0922269796
C        6.4218189611    0.5809589059    4.9040280287
C        2.3175873691    0.2800519463    1.9195923751
C        0.9711110354   -1.7174934299    1.7816695749
C        4.9160749245   -1.2350743165    3.4107373394
C        5.0745973351    0.3607859489    5.2135944671
C        1.7150086333   -0.8157118196    2.5569122643
C        4.3061037898   -0.5490437492    4.4725014654
C        1.8378587037   -1.0165489958    4.0133602846
C        2.8927851185   -0.7840488366    4.8243794472
H        1.3329696195   -0.2926920866   -1.2905330200
H        8.0583397654    0.0662579506    3.5980546649
H        2.6638553052    1.3135052824    0.0600071287
H        0.2462829980   -2.2322496525   -0.1831117613
H        6.7150976627   -1.5437028106    2.2643417995
H        7.0045986057    1.2823920426    5.4900896907
H        2.8981028029    0.9870424987    2.5013981451
H        0.4942940776   -2.5671547757    2.2560915395
H        4.3382864487   -1.9410523903    2.8250044532
H        4.6230083416    0.8966563514    6.0401932617
H        0.9402799540   -1.3733748211    4.5052069663
H        2.6796393644   -0.8025398945    5.8869771945
26   

C        1.5728310644   -0.9307092829   -0.2463393555
C        6.8838791100    0.3878012019    3.8644229002
C        2.6635605572   -1.5469911595    0.3735515282
C        0.5696837048   -0.3483951044    0.5331939614
C        5.8028876142    1.0080911133    3.2316030513
C        6.6520386689   -0.6118389761    4.8131305863
C        2.7467291742   -1.5836637564    1.7704500228
C        0.6614126802   -0.3801455306    1.9295563276
C        4.4933093045    0.6310409034    3.5516452663
C        5.3410311499   -0.9913735131    5.1237330449
C        1.7490723865   -0.9973971806    2.5639639447
C        4.2476890361   -0.3753097701    4.4980020711
C        1.8227902458   -1.0366415978    4.0384166303
C        2.8700834146   -0.7758785342    4.8486826206
H        1.5050639608   -0.9048686041   -1.3280235296
H        7.8985645269    0.6813799853    3.6204403110
H        3.4464224442   -1.9971025023   -0.2259946633
H       -0.2800700011    0.1272210727    0.0569386749
H        5.9767435686    1.7814938055    2.4923113670
H        7.4871331540   -1.0929805780    5.3093477758
H        3.5959873645   -2.0626032161    2.2446308779
H       -0.1205913437    0.0736986500    2.5269616789
H        3.6595240604    1.1157091640    3.0562950500
H        5.1696331834   -1.7674004606    5.8604845400
H        0.9145568681   -1.3604703548    4.5335068436
H        2.6656311541   -0.8274349709    5.9118888905
26   

C        1.5457715932   -0.9758574655   -0.2497047403
C        6.8859791458    0.4252692567    3.9017865211
C        2.6288993256   -1.5909765121    0.3841679838
C        0.5563219655   -0.3532224495    0.5158392782
C        5.7948198514    1.0376749549    3.2791619247
C        6.6715020281   -0.6040697912    4.8222215332
C        2.7180509248   -1.5865749323    1.7811349263
C        0.6539219909   -0.3438246344    1.9121518401
C        4.4923137022    0.6233862031    3.5813779308
C        5.3677365989   -1.0209289115    5.1150231135
C        1.7339073855   -0.9599924314    2.5614257367
C        4.2634130491   -0.4129854050    4.4998263612
C        1.8115432713   -0.9581208593    4.0346693904
C        2.8948944021   -0.8509440591    4.8343568308
H        1.4732275040   -0.9823248776   -1.3313706466
H        7.8950593494    0.7481132444    3.6719251975
H        3.4011362210   -2.0725787103   -0.2046045422
H       -0.2877079407    0.1215416654    0.0286825841
H        5.9552337967    1.8343408570    2.5618513138
H        7.5146020491   -1.0791462687    5.3106828365
H        3.5614033814   -2.0667230102    2.2644006225
H       -0.1185648801    0.1410997819    2.4973606074
H        3.6518191418    1.1045087026    3.0941200267
H        5.2113911215   -1.8196256985    5.8305616373
H        0.8649677460   -1.0930361645    4.5452370527
H        2.7310808326   -1.0910835144    5.8785718254
26   

C        1.4641811468   -1.0142697926   -0.2837708243
C        6.9374415723    0.4534228293    3.9785084818
C        2.5749917277   -1.5904543191    0.3383256753
C        0.4839472911   -0.3872386744    0.4896778662
C        5.8558825310    1.0394778951    3.3154380022
C        6.7135080376   -0.5803449164    4.8914313255
C        2.7012289883   -1.5430043919    1.7316465826
C        0.6179742013   -0.3348334990    1.8819842767
C        4.5531872906    0.5946414040    3.5696746048
C        5.4101014476   -1.0277462563    5.1367696018
C        1.7261975095   -0.9118627249    2.5206768110
C        4.3141467351   -0.4465830274    4.4808867565
C        1.8400553175   -0.8673681310    3.9892302367
C        2.9466124208   -0.9145482240    4.7680329607
H        1.3628842997   -1.0546223806   -1.3623976382
H        7.9463647762    0.8003554455    3.7860589979
H        3.3397835053   -2.0760688798   -0.2568608004
H       -0.3815810379    0.0573022538    0.0117897732
H        6.0238583743    1.8401566533    2.6043314649
H        7.5490436739   -1.0350092959    5.4113287144
H        3.5658367065   -1.9958544171    2.2034666901
H       -0.1492121933    0.1530229348    2.4716781786
H        3.7216749056    1.0586626179    3.0514986929
H        5.2484555226   -1.8293379757    5.8478530707
H        0.8998579343   -0.8077964318    4.5251671814
H        2.8003200551   -1.3411039875    5.7536277442
26   

C        1.3353404542   -1.0518154282   -0.3281296523
C        7.0146686301    0.4737158458    4.0951118860
C        2.5027547442   -1.5521123716    0.2544156211
C        0.3594127824   -0.4573244383    0.4755403089
C        5.9659894938    1.0139529731    3.3461600947
C        6.7546084179   -0.5381968784    5.0225494636
C        2.6905241588   -1.4610531345    1.6386496183
C        0.5537335726   -0.3618423323    1.8583679541
C        4.6596650645    0.5449737368    3.5284489028
C        5.4482467875   -1.0093991537    5.1971248282
C        1.7200029053   -0.8619255243    2.4585782658
C        4.3839256918   -0.4750470931    4.4540162597
C        1.8966032722   -0.7745877339    3.9171624202
C        3.0129778578   -0.9659107416    4.6681191572
H        1.1866510575   -1.1262385511   -1.3994391715
H        8.0259900965    0.8395931924    3.9583133710
H        3.2636293017   -2.0136124163   -0.3645398265
H       -0.5498503022   -0.0717682569    0.0285962963
H        6.1622409447    1.7986966433    2.6245779986
H        7.5643109266   -0.9572539134    5.6090176610
H        3.5986988681   -1.8582479652    2.0775293000
H       -0.2125260018    0.0995659968    2.4701169475
H        3.8551309747    0.9770525732    2.9443309981
H        5.2604213369   -1.7930210983    5.9216571459
H        1.0051592188   -0.5265183406    4.4813072016
H        2.8654528440   -1.5650329813    5.5590507383
26   

C        1.1705971567   -1.1054257203   -0.3562461779
C        7.0866222325    0.4958546555    4.2538875296
C        2.4041528010   -1.5069927710    0.1628707484
C        0.2036481029   -0.5642599609    0.4944814474
C        6.0941625162    0.9789248931    3.3971103415
C        6.7689516147   -0.4793179395    5.2024204068
C        2.6678129972   -1.3694965238    1.5308387254
C        0.4724482995   -0.4237993178    1.8608967018
C        4.7863078072    0.4887000560    3.4916793234
C        5.4613646722   -0.9706817771    5.2909685067
C        1.7067090900   -0.8232035636    2.3977480255
C        4.4529880106   -0.4949113128    4.4377719916
C        1.9637533199   -0.6898890550    3.8390264198
C        3.0798227715   -1.0052612112    4.5598578193
H        0.9636584621   -1.2155394405   -1.4147495524
H        8.0988177517    0.8779842307    4.1845195251
H        3.1574449361   -1.9286009416   -0.4927670782
H       -0.7564067070   -0.2552723519    0.0969555201
H        6.3351574650    1.7364494943    2.6601297624
H        7.5346717322   -0.8540004125    5.8721145376
H        3.6266908341   -1.6926385055    1.9197264780
H       -0.2886499356   -0.0057940699    2.5092008258
H        4.0257522797    0.8788788353    2.8250305836
H        5.2289767391   -1.7243346882    6.0341399306
H        1.1532280807   -0.2702592534    4.4231064827
H        2.9235213146   -1.7514336056    5.3299141258
26   

C        0.9809278548   -1.1725708272   -0.3759347247
C        7.1560024369    0.5224898863    4.4418825394
C        2.2774813461   -1.4660042910    0.0548570856
C        0.0390169329   -0.6919711211    0.5371774195
C        6.2457260760    0.9463789698    3.4700524235
C        6.7594517755   -0.4102862925    5.4034560117
C        2.6295994723   -1.2796641948    1.3969410017
C        0.3952493531   -0.5048350531    1.8777860005
C        4.9412558821    0.4382626392    3.4618466049
C        5.4550618258   -0.9177812814    5.3908531313
C        1.6939252956   -0.7944049628    2.3251050306
C        4.5298448684   -0.5020856776    4.4204565529
C        2.0476176613   -0.6125260341    3.7387183635
C        3.1587492670   -1.0277267593    4.4319140340
H        0.7059695992   -1.3198155929   -1.4142575378
H        8.1654360390    0.9178961658    4.4514881949
H        3.0109718166   -1.8419035300   -0.6492630376
H       -0.9690126602   -0.4663902527    0.2082191093
H        6.5478449744    1.6721401031    2.7236694058
H        7.4611640330   -0.7393204571    6.1614532607
H        3.6363697699   -1.5200504240    1.7189048977
H       -0.3465983333   -0.1358743960    2.5762827686
H        4.2430956992    0.7828731309    2.7076240423
H        5.1594539757   -1.6372265507    6.1454292501
H        1.3350783497   -0.0493318598    4.3295912032
H        2.9935734709   -1.8874520018    5.0703655341
26   

C        0.7808893170   -1.2475595097   -0.3984114549
C        7.2293395139    0.5545270562    4.6409300624
C        2.1272588229   -1.4426616146   -0.0780673072
C       -0.1112042089   -0.8160301457    0.5867776764
C        6.4239229929    0.9324925278    3.5630416695
C        6.7388238099   -0.3441578905    5.5919320165
C        2.5789631775   -1.2060674221    1.2257954423
C        0.3441006608   -0.5813282458    1.8894321433
C        5.1304483939    0.4115685539    3.4379854838
C        5.4447760546   -0.8621671659    5.4638459216
C        1.6934085966   -0.7720619192    2.2244121727
C        4.6259597156   -0.4921036902    4.3859685320
C        2.1578759491   -0.5400479043    3.5956709670
C        3.2656144878   -1.0267294776    4.2692673555
H        0.4291236459   -1.4326486349   -1.4070804627
H        8.2303323434    0.9589094229    4.7404264078
H        2.8221143692   -1.7808667860   -0.8382596591
H       -1.1567664366   -0.6653629335    0.3432012992
H        6.7989956607    1.6322041237    2.8249201104
H        7.3593743320   -0.6384953085    6.4306891509
H        3.6235950270   -1.3683591183    1.4653964119
H       -0.3580168551   -0.2515896935    2.6462434916
H        4.5112903667    0.7176856024    2.6025581063
H        5.0734655381   -1.5545969449    6.2102567230
H        1.5455419190    0.1363439832    4.1800462063
H        3.0960894019   -1.9672388839    4.7798129136
26   

C        0.5719528545   -1.3506192135   -0.4057441495
C        7.2868508030    0.6066136758    4.8608833077
C        1.9481340567   -1.4925123823   -0.2056143573
C       -0.2412869826   -0.9173385160    0.6450330119
C        6.5921063201    0.9787347398    3.7063614496
C        6.7095105490   -0.2965061166    5.7576975790
C        2.5082542884   -1.2004404095    1.0439079290
C        0.3222673838   -0.6296453949    1.8936281301
C        5.3224178350    0.4469091959    3.4506289129
C        5.4385056095   -0.8232370269    5.4999303924
C        1.7020788707   -0.7673012048    2.1067256792
C        4.7316146768   -0.4582310334    4.3443728015
C        2.2851939880   -0.4799935910    3.4189424652
C        3.3957663806   -0.9998907843    4.0864675477
H        0.1363200470   -1.5775615938   -1.3722560669
H        8.2695673491    1.0184085456    5.0611726288
H        2.5819887596   -1.8315982300   -1.0169933931
H       -1.3090744480   -0.8062428425    0.4942734788
H        7.0348585742    1.6815758760    3.0098913818
H        7.2446646299   -0.5875567844    6.6544364673
H        3.5755379058   -1.3175100860    1.1935373703
H       -0.3177569327   -0.2991101528    2.7033536852
H        4.7871495166    0.7437217556    2.5558770297
H        4.9975345494   -1.5190102431    6.2041932722
H        1.7641111399    0.2862172277    3.9804698099
H        3.2349698413   -1.9964980706    4.4799619916
