59

C      0.95395    1.77045    0.23546
C      0.13534    3.58671   -1.13670
C     -1.48687    0.25623   -0.66657
C      2.18127    2.42111    0.35535
C      1.36865    4.22590   -1.01853
C     -2.71710   -0.38633   -0.75109
C     -3.96818   -2.18038    1.92637
C     -3.06892   -3.96340    0.54177
C     -2.68394   -1.83871    2.33872
C     -1.77425   -3.62338    0.95923
C     -2.59957    2.38907   -0.69783
C     -0.09368    2.34466   -0.51213
C     -1.39607    1.66443   -0.62762
C      2.40871    3.65589   -0.26971
C     -3.85114    1.76886   -0.78674
C     -3.88351    0.37290   -0.79842
C     -4.15575   -3.23360    1.02545
C     -1.60280   -2.56679    1.84327
C      3.77722    4.37422   -0.13629
C     -5.12820    2.57850   -0.88215
C     -6.35565    1.73234   -0.52340
C     -6.25793    0.37896   -1.22268
C     -7.42029   -0.54837   -0.85589
C     -7.86497   -3.03836   -0.55150
C     -5.73084   -4.44269   -0.35621
C     -7.23745   -4.43708   -0.66940
N     -7.00207   -1.96878   -1.14778
O      3.85533    5.47625   -0.74168
O      4.62924    3.76075    0.55981
O     -5.09965   -0.34258   -0.80905
O     -8.01060   -5.19605    0.24996
O     -5.47681   -3.45684    0.63521
F     -0.35455   -2.22707    2.22720
H      0.78989    0.82886    0.75772
H     -0.64557    4.03163   -1.75187
H     -0.57780   -0.33634   -0.65020
H      2.99721    2.00403    0.93915
H      1.57196    5.17643   -1.50406
H     -2.77900   -1.46957   -0.78407
H     -4.82915   -1.62120    2.27888
H     -3.19435   -4.78710   -0.15189
H     -2.50908   -1.00756    3.01374
H     -0.90843   -4.16725    0.59541
H     -2.56153    3.47424   -0.64844
H     -5.07359    3.44782   -0.22057
H     -5.24019    2.97171   -1.90052
H     -6.39064    1.55692    0.55826
H     -7.28264    2.24005   -0.81300
H     -6.21742    0.52633   -2.31424
H     -8.33487   -0.32119   -1.40582
H     -7.61720   -0.50946    0.21704
H     -8.84695   -3.00735   -1.02509
H     -7.96807   -2.80556    0.50785
H     -5.15355   -4.22389   -1.26793
H     -5.43740   -5.44105   -0.00916
H     -7.36393   -4.82401   -1.69155
H     -6.89934   -2.09496   -2.15971
H     -6.05068   -2.03840   -0.73661
H     -7.86986   -6.14287    0.09050
