58

C     -3.76382   -2.13050   -4.18634
C     -3.39347   -2.40886   -2.86471
C     -2.87285   -1.44884   -5.01866
C     -2.14547   -2.01340   -2.38128
C     -1.62096   -1.05703   -4.53105
C      1.71800    1.73701   -3.04449
C     -0.32123    2.74881   -2.28381
C      2.10748    2.93687   -3.64462
C      0.05000    3.95284   -2.87823
C     -2.11909    1.08987    1.04292
C     -0.49423    0.99379    2.88947
C     -1.23859   -1.33590   -3.21234
C      0.50428    1.61850   -2.35773
C      0.19823    0.41009    0.65615
C     -1.08385    0.67147    0.20700
C      1.26783    4.05682   -3.56263
C     -1.79268    1.24528    2.39827
C      0.49879    0.56129    2.00746
C      0.99513   -1.99363   -2.04869
C      0.12781   -0.89662   -2.72820
C      1.03928   -1.68633   -0.54892
C      0.10290    0.30161   -1.71773
C      0.99785   -0.13208   -0.48386
C      2.77952    5.42762   -4.81092
C     -4.02097    1.93680    2.93106
C      2.15850    0.41803    3.73486
O     -1.22757    0.46115   -1.13623
O     -0.09025   -2.21755    0.15666
O      2.32742    0.36089   -0.60093
O      1.54798    5.28139   -4.11433
O     -2.68823    1.65812    3.34886
O      1.79525    0.26627    2.36313
H     -4.73689   -2.43948   -4.56030
H     -4.08523   -2.92963   -2.20643
H     -3.14839   -1.22268   -6.04587
H     -1.87415   -2.20499   -1.34840
H     -0.93400   -0.52261   -5.18398
H      2.39416    0.88962   -3.09873
H     -1.27116    2.68369   -1.76668
H      3.06008    2.98396   -4.16047
H     -0.59434    4.82570   -2.82447
H     -3.10654    1.27972    0.64240
H     -0.31571    1.14672    3.94650
H      0.62514   -3.00319   -2.25225
H      2.01552   -1.93565   -2.44117
H      0.66296   -0.54536   -3.61004
H      1.96678   -2.03698   -0.08053
H      2.80454    6.46042   -5.16210
H      2.83653    4.75072   -5.67292
H      3.63791    5.24838   -4.15111
H     -4.55754    2.24270    3.83033
H     -4.50052    1.04674    2.50588
H     -4.04699    2.75142    2.19701
H      3.20997    0.13519    3.80088
H      1.56105   -0.24208    4.37371
H      2.03707    1.45694    4.06242
H     -0.06340   -3.18205    0.05696
H      2.67065    0.43634    0.30593
