68

C      8.47973    1.79660   -4.37160
C      7.64258    2.89407   -4.59700
C      8.38332    1.07837   -3.17374
C    -13.52068   -2.51734   -2.00139
C     -1.07422    0.52347   -0.71913
C      0.48930    3.84417   -1.30939
C      1.24170    2.19087    0.28821
C      6.72078    3.28264   -3.62200
C      7.45585    1.45753   -2.20355
C    -12.40293   -1.82156   -2.46365
C     -2.27653   -0.15741   -0.86865
C      1.68975    4.53607   -1.17055
C      2.44967    2.86745    0.43868
C     -2.24599    2.61816   -0.90231
C    -14.07301   -2.14710   -0.77132
C    -12.51320   -0.49383   -0.47236
C      0.24367    2.66055   -0.58658
C     -1.03467    1.93067   -0.73937
C      6.62687    2.56922   -2.41659
C     -3.47042    1.95877   -1.04717
C    -11.87391   -0.78727   -1.68553
C     -3.47239    0.55343   -1.03723
C      2.66020    4.03439   -0.29924
C      5.65645    2.91673   -1.33003
C     -4.77089    2.72272   -1.18052
C     -5.96235    1.81599   -0.86212
C     -5.80414    0.48967   -1.59577
C     -6.94774   -0.49400   -1.36074
C     -9.36327   -0.82449   -1.68183
C    -10.62461   -0.05316   -2.11296
N    -13.58829   -1.15229   -0.01524
N      5.19111    4.22851   -1.34163
N     -8.18178   -0.00826   -1.98527
O      5.27927    2.10654   -0.49378
O      4.76050    4.64982    1.19364
O      4.03117    6.29119   -0.61760
O     -4.61368   -0.19774   -1.16589
O    -10.59644    1.24807   -1.54139
S      4.19244    4.92265   -0.11899
H      9.19964    1.49831   -5.12921
H      7.70261    3.44262   -5.53299
H      9.02967    0.22249   -2.99911
H    -13.96137   -3.32432   -2.58010
H     -0.15266   -0.04274   -0.61843
H     -0.25828    4.21366   -2.00505
H      1.06027    1.29824    0.87927
H      6.05477    4.11610   -3.82964
H      7.35770    0.90732   -1.27305
H    -11.95290   -2.07527   -3.42212
H     -2.31127   -1.24299   -0.86917
H      1.87605    5.45214   -1.72208
H      3.21912    2.50584    1.11073
H     -2.24890    3.70582   -0.87553
H    -14.94538   -2.66818   -0.37915
H    -12.14150    0.32095    0.14331
H     -4.76132    3.59271   -0.51589
H     -4.86855    3.11309   -2.20203
H     -6.01169    1.61394    0.21443
H     -6.90581    2.28158   -1.15811
H     -5.70520    0.68273   -2.67640
H     -7.11915   -0.58842   -0.28345
H     -6.64005   -1.48510   -1.72949
H     -9.34492   -1.81934   -2.15409
H     -9.40462   -0.97351   -0.59790
H    -10.62384    0.02405   -3.21427
H      5.63484    4.93855   -1.91636
H     -8.05210    0.01735   -2.99687
H     -9.64933    1.48954   -1.52415
