69

C      2.68788   -7.06361   -4.40855
C      4.47638   -6.54887   -5.92804
C     -3.14461  -16.86655   -5.74920
C     -1.92985  -16.69333   -6.38940
C      3.29086   -6.27975   -3.42427
C      5.10216   -5.77344   -4.95149
C     -2.69208  -15.00331   -4.28239
C     -1.45488  -14.81536   -4.92416
C      3.27067   -7.21181   -5.67478
C     -3.54728  -16.02355   -4.68201
C     -1.06431  -15.65563   -5.97891
C      4.50600   -5.63871   -3.68847
C     -0.54336  -13.74469   -4.52568
C      2.63875   -7.99834   -6.79216
C      3.66347  -10.43938   -5.59798
C      8.68150   -3.29285    0.71719
C      8.54838   -2.25640   -0.40805
C      7.37357   -4.07358    0.91053
C      1.17299   -9.91020   -7.67275
C      8.07476   -2.90372   -1.71760
C      6.90526   -4.71869   -0.40081
C      1.22110  -11.39671   -7.25102
C      1.63977   -9.09754   -6.43375
C      2.14091  -10.14113   -5.40997
C      6.76298   -3.68261   -1.52707
C      1.23590  -11.35625   -5.71402
C     -4.87828  -16.24891   -4.00394
C      1.64640  -12.66405   -5.03595
C      6.32990   -4.32819   -2.83863
N      0.15069  -15.50996   -6.63926
N      0.94955  -14.57594   -6.29094
N      0.63449  -13.72029   -5.28431
O      4.24927   -9.71782   -6.45975
O     -0.75582  -12.93568   -3.62247
O      2.76514   -7.59101   -7.94839
O      4.14776  -11.34682   -4.87489
O      5.03821   -4.89764   -2.65364
H      1.75011   -7.55915   -4.17706
H      4.92935   -6.67310   -6.90611
H     -3.80982  -17.66658   -6.06934
H     -1.61657  -17.33567   -7.20739
H      2.84033   -6.16335   -2.44211
H      6.04799   -5.29346   -5.17871
H     -2.95460  -14.32860   -3.47242
H      8.97668   -2.80107    1.65264
H      9.48653   -3.99707    0.46389
H      7.82378   -1.48743   -0.10519
H      9.50405   -1.74158   -0.56692
H      7.50052   -4.84159    1.68307
H      6.59509   -3.38845    1.27513
H      1.82904   -9.70095   -8.51871
H      0.16021   -9.61445   -7.96824
H      7.94822   -2.13672   -2.49229
H      8.85193   -3.59154   -2.08130
H      7.63564   -5.47967   -0.71216
H      5.95342   -5.23870   -0.25925
H      0.38600  -11.98004   -7.65537
H      2.14698  -11.86229   -7.60475
H      0.76933   -8.57717   -6.00397
H      2.00049   -9.82003   -4.37273
H      5.97796   -2.96832   -1.23929
H      0.22569  -11.10847   -5.35969
H     -4.90733  -17.22606   -3.50714
H     -5.07498  -15.48290   -3.24938
H     -5.70033  -16.22916   -4.72869
H      1.72552  -12.53511   -3.95695
H      2.59710  -13.03115   -5.41246
H      7.04750   -5.10817   -3.13197
H      6.29934   -3.57700   -3.64185
