25   

C        0.0068803496   -0.0810819810    1.3459008345
C        1.6315915788   -0.6648274863    2.9781618795
C       -0.8535718881   -1.0031496987    1.9414223139
C        1.2903646388    0.0991544980    1.8649608425
C        0.7114608985   -1.5718246738    3.5098646080
C        2.3068155728    1.0640187604    1.3402247223
C        2.8336458672    4.1089757708    0.8928316108
C        2.3050044110   -2.4958917924    5.2195319219
C        2.6594766842    2.9351757573   -0.0658273039
N       -0.5059795741   -1.7384553941    3.0068043719
N        0.9822360350   -2.3719280322    4.5945043739
O        3.4815459091    1.0179538696    1.6971550600
O        1.7633965729    1.9602501259    0.4871598488
H       -0.3312173809    0.4860001077    0.4874228605
H        2.6076863994   -0.5615602193    3.4313667613
H       -1.8459644604   -1.1317049919    1.5250634841
H        1.8632491241    4.5666935466    1.1069457094
H        3.2856276104    3.7729916413    1.8309997540
H        3.4869403202    4.8621234272    0.4427676314
H        3.0576325466   -2.7700252407    4.4726690948
H        2.2829546946   -3.2792420839    5.9837906871
H        2.5914537993   -1.5549725906    5.7006516302
H        3.6356505201    2.4913431081   -0.2915582001
H        2.2423413745    3.3015893017   -1.0090684986
H        0.2079575860   -2.9812744676    4.8332252818
25   

C       -0.0024658285   -0.1855624126    1.2506520580
C        1.6132868913   -0.6612449422    2.9260970329
C       -0.8582974950   -1.0839517770    1.8878658571
C        1.2749854004    0.0322566773    1.7672048216
C        0.6986059966   -1.5484912147    3.4987577521
C        2.2751099011    0.9929847864    1.2060392413
C        2.9399153963    4.0421274340    1.0446187157
C        2.2868281351   -2.3591708163    5.2692586930
C        2.5523383772    3.0061494397   -0.0058420145
N       -0.5119844992   -1.7569808571    2.9943522634
N        0.9676015216   -2.2826220984    4.6294309283
O        3.4802312064    0.8495040147    1.3947143465
O        1.6782889778    2.0174135929    0.5575825281
H       -0.3372310247    0.3365515845    0.3628707347
H        2.5846057028   -0.5170504050    3.3784085778
H       -1.8460848804   -1.2447338912    1.4717607326
H        2.0430504827    4.5190938741    1.4509954779
H        3.4953668011    3.5702026186    1.8607344419
H        3.5734862983    4.8104844698    0.5920578286
H        3.0481918821   -2.6626605003    4.5428806724
H        2.2675929090   -3.1024400166    6.0726287698
H        2.5590273366   -1.3915322034    5.7033339090
H        3.4543457540    2.5440476444   -0.4226655228
H        2.0328631369    3.5071432271   -0.8287204009
H        0.1986079121   -2.8882616256    4.8934232259
25   

C       -0.0021574150   -0.2886244137    1.1555713080
C        1.6014939278   -0.6426243889    2.8713682775
C       -0.8464501026   -1.1728793801    1.8272960822
C        1.2641710229   -0.0203196030    1.6729261234
C        0.6994938414   -1.5202531010    3.4779181505
C        2.2388730825    0.9462395074    1.0763455470
C        3.0669146742    3.9589602588    1.1817642607
C        2.2831567220   -2.2060961077    5.3040832229
C        2.4691805645    3.0817326829    0.0863134374
N       -0.4994290393   -1.7818366692    2.9702525402
N        0.9696524718   -2.1883038107    4.6485063660
O        3.4468735867    0.7278404016    1.0820503021
O        1.6224066748    2.0714178149    0.6528364361
H       -0.3360476261    0.1858789560    0.2412526400
H        2.5641438614   -0.4500674600    3.3239281040
H       -1.8257676091   -1.3751243298    1.4092654764
H        2.2688943933    4.4218881027    1.7698587022
H        3.7012957872    3.3634984184    1.8452630651
H        3.6775526712    4.7480525408    0.7333693107
H        3.0586914068   -2.5265614854    4.6003434124
H        2.2710103994   -2.9113185350    6.1411923224
H        2.5298111453   -1.2135216970    5.6949407931
H        3.2718565515    2.6343153201   -0.5107224144
H        1.8715169365    3.7052995626   -0.5859656782
H        0.2112010566   -2.7980134686    4.9329656457
25   

C       -0.0108765999   -0.4012210619    1.0665662948
C        1.5751150576   -0.6201675352    2.8195098734
C       -0.8342052623   -1.2852232489    1.7643779667
C        1.2360438471   -0.0650175702    1.5894988981
C        0.6954027128   -1.5024030722    3.4516321567
C        2.1794534535    0.9113924770    0.9554244961
C        3.2269091393    3.8390057562    1.2785003009
C        2.2733127350   -2.0506827683    5.3287292926
C        2.4096026262    3.1389521466    0.1974171593
N       -0.4847647291   -1.8299564610    2.9385772117
N        0.9702888785   -2.1075722404    4.6548507934
O        3.3555588254    0.6294488737    0.7488126935
O        1.5883533516    2.1112718599    0.7700226404
H       -0.3455951943    0.0202953934    0.1270936690
H        2.5231796580   -0.3721135513    3.2752119699
H       -1.7984978244   -1.5414217428    1.3410377665
H        2.5618647880    4.2652766635    2.0354720253
H        3.9103514004    3.1325184408    1.7591344912
H        3.8172717018    4.6453120590    0.8335867135
H        3.0707692821   -2.3701776172    4.6494774838
H        2.2739131232   -2.7219654542    6.1933863335
H        2.4775440351   -1.0348581502    5.6825471052
H        3.0789783633    2.7286253945   -0.5671040322
H        1.7631467524    3.8724661186   -0.2945861554
H        0.2299923198   -2.7324866974    4.9539137916
25   

C       -0.0356938255   -0.5032010503    0.9955174261
C        1.5073228748   -0.5633423129    2.7973350023
C       -0.8241106302   -1.4123555076    1.7013168617
C        1.1693194218   -0.0679607045    1.5422480382
C        0.6649952004   -1.4768932022    3.4361058035
C        2.0741851249    0.9292091628    0.8797495816
C        3.3788902432    3.7274221348    1.3408463636
C        2.2236985142   -1.8757484142    5.3663333097
C        2.3405057126    3.2165352616    0.3469476158
N       -0.4778138995   -1.8933545624    2.9038162204
N        0.9426224640   -2.0258333938    4.6653640390
O        3.1685431058    0.6076392707    0.4290688137
O        1.5506166020    2.1719013569    0.9327287296
H       -0.3643226926   -0.1413055087    0.0295008148
H        2.4256171166   -0.2441969373    3.2687631565
H       -1.7565207935   -1.7442420107    1.2595222090
H        2.8849389999    4.0903914623    2.2470821099
H        4.0774147632    2.9289802737    1.6087994907
H        3.9460456662    4.5497559282    0.8950807291
H        3.0545073350   -2.1631923090    4.7132373946
H        2.2434431808   -2.5255033926    6.2470686337
H        2.3591466146   -0.8415430944    5.6992603130
H        2.8385915825    2.8697690115   -0.5655016514
H        1.6787585613    4.0412736383    0.0642386759
H        0.2336722357   -2.6863598409    4.9640316513
25   

C       -0.0350449748   -0.6214214763    0.9241986986
C        1.4465039748   -0.5115178132    2.7729245118
C       -0.7698952483   -1.5754854923    1.6283452270
C        1.1049630317   -0.0657313930    1.5003941698
C        0.6611542792   -1.4765358421    3.4088659141
C        1.9627876354    0.9576757738    0.8134414703
C        3.5371200518    3.5983220438    1.3240245288
C        2.1919551815   -1.7150839610    5.3875788389
C        2.2984089634    3.2756364284    0.4941290048
N       -0.4269577726   -1.9963440005    2.8539831315
N        0.9459303843   -1.9770110842    4.6570298756
O        2.9035927748    0.6344003539    0.0965405503
O        1.5505995361    2.2105863176    1.0979212205
H       -0.3526544213   -0.3205581234   -0.0661850526
H        2.3223345971   -0.1116955045    3.2627780714
H       -1.6539525743   -1.9970876789    1.1642113219
H        3.2462137703    3.8705998457    2.3429880509
H        4.2081022110    2.7347832977    1.3614496963
H        4.0761957553    4.4377803856    0.8753576743
H        3.0600257470   -1.9451457343    4.7607425590
H        2.2397513868   -2.3483461628    6.2791922297
H        2.2360791637   -0.6685977184    5.7064260651
H        2.5930455211    3.0201969241   -0.5299692467
H        1.6622881417    4.1646209559    0.4385937125
H        0.2837517888   -2.6871739993    4.9492756868
25   

C       -0.0277069907   -0.7187294348    0.8644961594
C        1.3754249784   -0.4491834931    2.7559473177
C       -0.6980840518   -1.7240514967    1.5612431538
C        1.0313365455   -0.0455824336    1.4697048514
C        0.6585231162   -1.4712848738    3.3836937381
C        1.8358574251    1.0114430516    0.7719612644
C        3.6636304952    3.4768746678    1.2804859392
C        2.1440301160   -1.5498634474    5.4095515402
C        2.2765735083    3.3321219060    0.6618514563
N       -0.3613863927   -2.0930081244    2.8050980106
N        0.9493016105   -1.9303832449    4.6462899787
O        2.5741002052    0.7392423673   -0.1686603846
O        1.5694971188    2.2396673084    1.2656115009
H       -0.3291969901   -0.4701629233   -0.1454339838
H        2.1987158695    0.0306110600    3.2646742563
H       -1.5219944071   -2.2331019834    1.0746530386
H        3.5791403536    3.6306266600    2.3604482718
H        4.2619959813    2.5803347405    1.0918412211
H        4.1782498216    4.3366102463    0.8416338440
H        3.0479777526   -1.7095388907    4.8122543555
H        2.2201214998   -2.1656051791    6.3114176686
H        2.0855137025   -0.4998114796    5.7140205475
H        2.3646624551    3.1958454164   -0.4218608049
H        1.7105531561    4.2537309398    0.8299848341
H        0.3430648768   -2.6922425529    4.9297276915
25   

C       -0.0086039877   -0.7793791161    0.8176301361
C        1.3109634356   -0.3814774233    2.7450938763
C       -0.6141702308   -1.8317467514    1.5037180665
C        0.9698053838   -0.0121552857    1.4471367435
C        0.6627041254   -1.4550453115    3.3615681023
C        1.7132082991    1.0875839118    0.7530705716
C        3.7586083287    3.3800026845    1.2212347977
C        2.0880059023   -1.3943872011    5.4311553163
C        2.2811259258    3.3824325179    0.8405216283
N       -0.2854766005   -2.1625299680    2.7602713876
N        0.9554111454   -1.8820967656    4.6349146891
O        2.2447581964    0.9101320380   -0.3381047921
O        1.6120859241    2.2560960688    1.4249874581
H       -0.2952028013   -0.5667086004   -0.2050205129
H        2.0782801557    0.1663193856    3.2725205528
H       -1.3769190371   -2.4118756885    0.9973584765
H        3.8661704721    3.3978174012    2.3099136283
H        4.2537048636    2.4873172344    0.8269288399
H        4.2513315591    4.2631543251    0.8043232559
H        3.0214124351   -1.4837632817    4.8653601843
H        2.1853588461   -1.9920336785    6.3430938970
H        1.9317159474   -0.3498364480    5.7196449209
H        2.1775475344    3.3824146511   -0.2503457266
H        1.8158673651    4.3006294539    1.2125994224
H        0.4052317915   -2.6887371342    4.9086561477
25   

C        0.0460175918   -0.8233056781    0.7748350259
C        1.2668838117   -0.3354897300    2.7450069431
C       -0.5027223486   -1.9199050783    1.4385713799
C        0.9446829862    0.0132579000    1.4358329513
C        0.6795991148   -1.4563598718    3.3381340967
C        1.6187093045    1.1674762983    0.7636076975
C        3.8305563058    3.3160052036    1.1465349261
C        2.0219022403   -1.2943030985    5.4574005836
C        2.3131558550    3.4149347111    1.0209282027
N       -0.1925137700   -2.2301988687    2.7047364172
N        0.9601848491   -1.8654841052    4.6200812508
O        1.9595849223    1.1094872602   -0.4137392588
O        1.6882116498    2.2482142631    1.5742785240
H       -0.2229521795   -0.6282783935   -0.2563445759
H        1.9732484236    0.2634641289    3.3013938399
H       -1.2035795507   -2.5524609000    0.9062041019
H        4.1138353287    3.1958795067    2.1964899511
H        4.2069321724    2.4625366014    0.5743029818
H        4.2958795503    4.2266568478    0.7582977634
H        2.9803657878   -1.3145171369    4.9279829749
H        2.1281394331   -1.8823311919    6.3745796263
H        1.7775774850   -0.2640170240    5.7359037206
H        2.0345522701    3.5527574176   -0.0298391685
H        1.9639908840    4.2954426774    1.5693465915
H        0.4610905250   -2.7105694446    4.8750639603
25   

C        0.0996739149   -0.8761712745    0.7511833930
C        1.2213561849   -0.3218557174    2.7609736049
C       -0.3999545662   -2.0086551035    1.3924179571
C        0.9256943321    0.0121473110    1.4410200236
C        0.6867554329   -1.4808247289    3.3307469633
C        1.5266111330    1.2178166999    0.7911165458
C        3.8713519001    3.2486366479    1.0126191516
C        1.9345342546   -1.2390341847    5.5002676557
C        2.3601009565    3.4029720743    1.1550618191
N       -0.1120563984   -2.3057487638    2.6665214750
N        0.9475298429   -1.8771954201    4.6209403403
O        1.6811401785    1.2744422693   -0.4252512980
O        1.7815435498    2.2016743472    1.6846133256
H       -0.1533629042   -0.6918550965   -0.2861736171
H        1.8679911052    0.3132864705    3.3488677807
H       -1.0432732532   -2.6801133921    0.8356107070
H        4.3178616333    3.0083534273    1.9821306679
H        4.1091619460    2.4514066099    0.3017192244
H        4.3074238518    4.1823344907    0.6457510786
H        2.9134570723   -1.1974598341    5.0110837069
H        2.0399623231   -1.8191550768    6.4225588037
H        1.6131625507   -0.2266543624    5.7659260166
H        1.9190576330    3.6608067854    0.1856508013
H        2.1465158576    4.2289923809    1.8406471641
H        0.4929403143   -2.7523123576    4.8571037233
25   

C        0.1840437974   -0.9004589313    0.7300060908
C        1.1930840094   -0.3049847980    2.7862085373
C       -0.2740476286   -2.0666857972    1.3404058844
C        0.9360440605    0.0249057155    1.4567222080
C        0.7042530353   -1.4993528935    3.3237162057
C        1.4674248711    1.2804174288    0.8405157902
C        3.9019916142    3.2224377250    0.8634507709
C        1.8449792266   -1.2102392755    5.5461853860
C        2.4412601176    3.3950783127    1.2686289475
N       -0.0180672120   -2.3618532422    2.6212918575
N        0.9331524394   -1.8934628230    4.6207090338
O        1.4447072704    1.4499732415   -0.3752262045
O        1.9096351660    2.1599118889    1.7689637425
H       -0.0468803506   -0.7177244272   -0.3128778429
H        1.7742425851    0.3554337918    3.4130211564
H       -0.8584303338   -2.7657725620    0.7534384544
H        4.4907570573    2.8753021277    1.7177877559
H        3.9899737009    2.4962297387    0.0496029838
H        4.3081206504    4.1786190924    0.5209139276
H        2.8398596702   -1.1098108945    5.0995996247
H        1.9433486251   -1.7925682387    6.4678601011
H        1.4568185427   -0.2198229854    5.8053716589
H        1.8587476509    3.7596020859    0.4150485105
H        2.3742815629    4.1522213296    2.0561508763
H        0.5191828961   -2.7950499772    4.8305063200
25   

C       -0.2165355219   -0.1450524308    1.1671077952
C        1.6037171909   -0.9779460576    2.4288019946
C       -1.0725457516   -0.6644296135    2.1364776878
C        1.1663382290   -0.2939569980    1.2958189243
C        0.6809504398   -1.4630802679    3.3603947278
C        2.1228154593    0.2448069853    0.2788622929
C        4.7248570138    1.9348507485   -0.0428113876
C        2.4251309487   -2.2690241489    4.9830514539
C        4.4007574983    0.4708909246   -0.3241103600
N       -0.6293717782   -1.3147500155    3.2197487612
N        1.0438404169   -2.1312368599    4.5057536349
O        1.7210500497    0.8448500434   -0.7141556887
O        3.4125524201   -0.0123886527    0.5971802610
H       -0.6329992875    0.3739708863    0.3117972430
H        2.6571957819   -1.1409014495    2.6026439134
H       -2.1411791339   -0.5352738259    2.0095907519
H        3.8371900702    2.5579823695   -0.1882734526
H        5.0786443037    2.0507689639    0.9859767043
H        5.5068884167    2.2799066150   -0.7254104109
H        2.9026951872   -1.2867447566    5.0628279774
H        3.0034616827   -2.9048171305    4.3047655027
H        2.4305744087   -2.7313497058    5.9752653277
H        5.3107931247   -0.1263544076   -0.2097903584
H        4.0639253332    0.3569647355   -1.3606515943
H        0.2438688654   -2.3944705079    5.0705497281
25   

C       -0.2422358549   -0.2203956019    1.1243832499
C        1.6037034535   -0.9329982818    2.4227966294
C       -1.0812660477   -0.7914959704    2.0795589625
C        1.1442244831   -0.2867055744    1.2766654845
C        0.6966878901   -1.4741057990    3.3387403724
C        2.0854181185    0.3288016418    0.2899209015
C        4.8122249717    1.8146570092    0.0504839844
C        2.4582190206   -2.1555859256    4.9990819437
C        4.3351832213    0.4497364260   -0.4364518268
N       -0.6176372986   -1.4113990572    3.1723054579
N        1.0801138658   -2.1100897190    4.4956310752
O        1.6814431462    1.0949064207   -0.5802370304
O        3.3595006478   -0.0920785284    0.4652459360
H       -0.6738258388    0.2762343270    0.2633293956
H        2.6627656155   -1.0195227674    2.6169428450
H       -2.1534812353   -0.7281617511    1.9342991790
H        3.9808821938    2.5259728750    0.0696008625
H        5.2328937042    1.7289978573    1.0568351201
H        5.5837591215    2.2003695656   -0.6222092233
H        2.8697055408   -1.1440357427    5.0812747126
H        3.0890242744   -2.7561537935    4.3356285034
H        2.4749518170   -2.6112588032    5.9942451184
H        5.1891853881   -0.2332111785   -0.4834228191
H        3.9308300880    0.5369322068   -1.4511891202
H        0.2883032100   -2.4214247990    5.0473124455
25   

C       -0.2565974446   -0.2887257587    1.0772263627
C        1.5968584167   -0.8835585500    2.4247445353
C       -1.0818249401   -0.9130461420    2.0113278777
C        1.1261735148   -0.2730978143    1.2641520783
C        0.7033469051   -1.4821346733    3.3174986009
C        2.0555403988    0.4204452873    0.3194364472
C        4.8863822350    1.6903012212    0.1066712919
C        2.4622124066   -2.0450776072    5.0239056966
C        4.2563362565    0.4658154991   -0.5503334417
N       -0.6076449681   -1.5042468974    3.1159271022
N        1.0970248802   -2.0891723529    4.4863600905
O        1.6649786892    1.3332109964   -0.4023310445
O        3.2908826578   -0.1320214487    0.3264492013
H       -0.6947608240    0.1875264880    0.2081435108
H        2.6553794720   -0.8941105714    2.6405726718
H       -2.1520945266   -0.9152593590    1.8402499068
H        4.1272449042    2.4548823399    0.2980736875
H        5.3571509184    1.4087180322    1.0533226278
H        5.6485011218    2.1152829307   -0.5529554825
H        2.8061596455   -1.0090878645    5.1119048241
H        3.1463653556   -2.6059079367    4.3787926017
H        2.4831982600   -2.4959610218    6.0211717513
H        5.0387785829   -0.2684561442   -0.7661673684
H        3.8013406585    0.7487406724   -1.5062037241
H        0.3132095771   -2.4496940227    5.0191930834
25   

C       -0.2467571169   -0.3616859660    1.0403240320
C        1.5955274571   -0.8465957482    2.4477772817
C       -1.0606360178   -1.0444664399    1.9434213047
C        1.1245164764   -0.2642390156    1.2737204557
C        0.7133950110   -1.5072009954    3.3071558944
C        2.0434978861    0.5074387316    0.3801788917
C        4.9563320217    1.5598117701    0.1289554325
C        2.4444126160   -1.9547947343    5.0742919765
C        4.1695988139    0.5163248070   -0.6586039875
N       -0.5860544756   -1.6126767294    3.0603711847
N        1.1063902215   -2.0932365889    4.4868251215
O        1.6822487961    1.5477843442   -0.1610090427
O        3.2170185075   -0.1383438967    0.1910952182
H       -0.6842384022    0.0974886189    0.1619841202
H        2.6460244213   -0.7859348935    2.6928082453
H       -2.1226519136   -1.1121872110    1.7378028009
H        4.2875068230    2.3408571492    0.5033314192
H        5.4643966723    1.0877717259    0.9752007465
H        5.7064489619    2.0253217125   -0.5169281995
H        2.7137684577   -0.8975846266    5.1696588204
H        3.1885818983   -2.4694712431    4.4577971246
H        2.4587709180   -2.4003735540    6.0740616137
H        4.8625965349   -0.2329172843   -1.0540329083
H        3.6766500228    0.9897388013   -1.5151132178
H        0.3297829470   -2.5049486272    4.9924487368
25   

C       -0.2263034927   -0.4371276156    1.0142892752
C        1.5843951871   -0.8080383827    2.4970110842
C       -1.0283564467   -1.1828074340    1.8777597389
C        1.1230993140   -0.2501357501    1.3081342066
C        0.7145782624   -1.5356805477    3.3135766039
C        2.0296696126    0.5950169907    0.4669097161
C        4.9956225795    1.4483950042    0.1025638017
C        2.3944689211   -1.8741777327    5.1525319608
C        4.0514175858    0.6176702459   -0.7613103950
N       -0.5629860086   -1.7279780136    3.0102805864
N        1.0973777504   -2.1042948636    4.5050492803
O        1.7184716846    1.7353830595    0.1391611476
O        3.1182500865   -0.0962882479    0.0616781194
H       -0.6566535406    0.0008429655    0.1220099149
H        2.6174548961   -0.6759086984    2.7840028067
H       -2.0737623557   -1.3208390257    1.6271424322
H        4.4363288891    2.2038116601    0.6629399691
H        5.5279615041    0.8016012936    0.8063974057
H        5.7279563329    1.9573681653   -0.5308252893
H        2.5843332856   -0.8010170912    5.2604112067
H        3.1999982641   -2.3331748691    4.5701373285
H        2.3950304842   -2.3210770813    6.1518174414
H        4.6358283305   -0.1048362467   -1.3396195105
H        3.5333145039    1.2662360482   -1.4766086558
H        0.3298982634   -2.5714486772    4.9752010686
25   

C       -0.1719767292   -0.4912874052    0.9950890504
C        1.5738987443   -0.7582040912    2.5761807842
C       -0.9692342980   -1.2985991762    1.8063566118
C        1.1409319227   -0.2152010615    1.3706004875
C        0.7103087704   -1.5513324179    3.3363599726
C        2.0469643606    0.6835808577    0.5815031330
C        5.0414053782    1.3253279794    0.0344900351
C        2.3014366151   -1.7958945050    5.2665003098
C        3.9361577959    0.7405536282   -0.8396120516
N       -0.5328162032   -1.8239381164    2.9597133520
N        1.0641609004   -2.1095886209    4.5416002123
O        1.8398861150    1.8893530323    0.4972628685
O        3.0159077256   -0.0191290977   -0.0433951811
H       -0.5786393384   -0.0778848990    0.0805594074
H        2.5788848914   -0.5626089528    2.9205069665
H       -1.9866044376   -1.5050757980    1.4948183874
H        4.6214961354    2.0203539766    0.7679933224
H        5.5678296972    0.5235720857    0.5609518227
H        5.7588221750    1.8684080843   -0.5875602770
H        2.4103959854   -0.7130773876    5.3890426569
H        3.1698911898   -2.1944398639    4.7320083533
H        2.2731441610   -2.2489362933    6.2626143304
H        4.3829139325    0.0791964475   -1.5886292030
H        3.4228683759    1.5448832192   -1.3784544930
H        0.3039306463   -2.6309116963    4.9641664937
25   

C       -0.0790564663   -0.5503169373    0.9641136536
C        1.5730880981   -0.7082871741    2.6583183946
C       -0.8699695674   -1.4172286645    1.7184250927
C        1.1784032318   -0.1785902047    1.4342456214
C        0.7183616310   -1.5652969387    3.3564815714
C        2.0927780181    0.7569022311    0.6967483108
C        5.0819674755    1.1859796353   -0.0732448739
C        2.1960782043   -1.7222174200    5.3831110283
C        3.8352677287    0.8762054145   -0.8960675411
N       -0.4761771272   -1.9183923439    2.8976958349
N        1.0324325186   -2.1123873681    4.5777655182
O        2.0508304065    1.9700487220    0.8701981421
O        2.9135645128    0.0826175792   -0.1352794962
H       -0.4475239019   -0.1692970647    0.0200214506
H        2.5393153075   -0.4500843318    3.0665223322
H       -1.8456146534   -1.6953706639    1.3370069491
H        4.8208157114    1.7792806590    0.8082937526
H        5.5598820872    0.2561254503    0.2492715692
H        5.7932759655    1.7564796459   -0.6775336409
H        2.2219183529   -0.6358256652    5.5190688216
H        3.1224719254   -2.0545459406    4.9034282916
H        2.1355167241   -2.1867473618    6.3724663972
H        4.1259013175    0.3167758939   -1.7908290439
H        3.3695014148    1.8097440390   -1.2313356564
H        0.2840803954   -2.6880682582    4.9476036958
25   

C       -0.1916876336    0.4776497498    1.9952032204
C        1.5950536691   -0.5203387440    3.1958135702
C       -0.9808968409   -0.6161658043    2.3511026878
C        1.1296548116    0.5444761474    2.4313202580
C        0.7421270399   -1.5840783973    3.5020307542
C        2.0642035502    1.6652146493    2.0816458433
C        2.5879702225    3.8704187166   -0.0467226763
C        2.5119692165   -2.9334693907    4.6712724240
C        3.3551893528    2.6098431838    0.3406598231
N       -0.5205165441   -1.6322346139    3.0943513637
N        1.1324114117   -2.6751360229    4.2414882889
O        2.4469761629    2.4727182641    2.9214852175
O        2.4514899346    1.5905213845    0.7904744583
H       -0.6101069386    1.2678447184    1.3847809828
H        2.6149118108   -0.5169050346    3.5525549509
H       -2.0089544543   -0.6484486998    2.0093744924
H        1.8570318742    3.6403731007   -0.8277009301
H        2.0660315276    4.2827884414    0.8221666190
H        3.2820788787    4.6261385208   -0.4257488889
H        3.1864685305   -2.9405899942    3.8085527605
H        2.5720120769   -3.9120112214    5.1582285529
H        2.8395579586   -2.1730325273    5.3876756267
H        4.0978489723    2.8479464191    1.1104034990
H        3.8987437364    2.2377224118   -0.5334526115
H        0.3886908204   -3.3544843772    4.3572792417
25   

C       -0.1111930626    0.4083997781    1.8778433948
C        1.6169818908   -0.5496494558    3.1933458803
C       -0.9240174209   -0.6627585587    2.2492681810
C        1.1903809309    0.4867981722    2.3689902084
C        0.7426907871   -1.5923740763    3.5105850198
C        2.1632637171    1.5647232543    1.9994691637
C        2.5815913576    3.9770381044    0.0847446140
C        2.4550554016   -2.9060299341    4.7990637100
C        3.2614318164    2.6150108109    0.1870972135
N       -0.5035434749   -1.6478842686    3.0554509158
N        1.0943892930   -2.6548388771    4.3087342869
O        2.7714242443    2.2049230528    2.8511756357
O        2.3353237666    1.6271883076    0.6609239646
H       -0.4944283610    1.1703748228    1.2109107361
H        2.6231140524   -0.5394606463    3.5878620767
H       -1.9368438944   -0.7040794254    1.8656114592
H        1.7171520910    3.9163647236   -0.5832358655
H        2.2488458351    4.3135682855    1.0714091131
H        3.2841736080    4.7140633458   -0.3149111621
H        3.1607948757   -2.9516203120    3.9628953044
H        2.4889538695   -3.8651969410    5.3254736175
H        2.7626638831   -2.1203965786    5.4969059583
H        4.1366833901    2.6840691510    0.8427444900
H        3.6184709367    2.3166163209   -0.8035977076
H        0.3413652754   -3.3241020114    4.4226876272
25   

C       -0.0554134151    0.3215691227    1.7613408412
C        1.6311893514   -0.5846201496    3.1663688020
C       -0.8890188175   -0.7197594743    2.1693979199
C        1.2362900203    0.4113282767    2.2778993148
C        0.7371650934   -1.5994207679    3.5170908675
C        2.2366573867    1.4520709803    1.8829800443
C        2.5848938868    4.0588589175    0.2269725314
C        2.4034684813   -2.8610470170    4.9131231802
C        3.1463934865    2.6503707190    0.0571416571
N       -0.4988868861   -1.6652717833    3.0360519263
N        1.0574942556   -2.6221774399    4.3778978143
O        3.0168975384    1.9369440973    2.6971431931
O        2.2153311514    1.6766181279    0.5502564483
H       -0.4149826495    1.0511110970    1.0464535774
H        2.6280926661   -0.5665121967    3.5840414416
H       -1.8931971790   -0.7705756661    1.7647242490
H        1.6291452869    4.1484060816   -0.2980376892
H        2.4336631428    4.2852346910    1.2868673750
H        3.2843495480    4.7903986467   -0.1879444238
H        3.1279686847   -2.9580099247    4.0976228801
H        2.4141318870   -3.7912679655    5.4900285947
H        2.7038218033   -2.0427181620    5.5756698128
H        4.1116910783    2.5700448578    0.5694526705
H        3.3244828907    2.4607062104   -1.0060104892
H        0.2945707942   -3.2769899723    4.5084206103
25   

C       -0.0131327078    0.2326634040    1.6523120391
C        1.6473094957   -0.6079978665    3.1289485267
C       -0.8614874570   -0.7766175433    2.1073989022
C        1.2752272714    0.3374285869    2.1769973632
C        0.7388005279   -1.5931723290    3.5240681692
C        2.2928626729    1.3492863493    1.7544323251
C        2.6183560483    4.1246357461    0.3855719744
C        2.3739517299   -2.7885812208    5.0121134266
C        3.0333384345    2.7164442183   -0.0299081424
N       -0.4912666894   -1.6754540095    3.0304739014
N        1.0371828647   -2.5675278663    4.4467659853
O        3.2076253160    1.6910241796    2.4992489716
O        2.1031844690    1.7486963904    0.4769495955
H       -0.3610632683    0.9256433552    0.8963125141
H        2.6375901731   -0.5785955520    3.5617671691
H       -1.8615386767   -0.8402601407    1.6944012081
H        1.6097258730    4.3421674143    0.0216686678
H        2.6344248909    4.2223909469    1.4753685871
H        3.3113946286    4.8567756219   -0.0389497623
H        3.1081068715   -2.9356606277    4.2128953748
H        2.3686471258   -3.6862550398    5.6385190614
H        2.6732716263   -1.9381201706    5.6333864721
H        4.0505192319    2.5092628866    0.3210334175
H        3.0463504206    2.6538567952   -1.1225591979
H        0.2666841512   -3.2077187676    4.6026591865
25   

C        0.0079498144    0.1322046249    1.5457535819
C        1.6517749399   -0.6378501857    3.0786437968
C       -0.8513052327   -0.8437445440    2.0501066482
C        1.2967201392    0.2531015914    2.0689075051
C        0.7322685244   -1.5920601032    3.5215158790
C        2.3240808932    1.2414399867    1.6137058883
C        2.6697279756    4.1512835394    0.5571097242
C        2.3446277281   -2.7108659510    5.0920683882
C        2.9106865272    2.7865933274   -0.0810913119
N       -0.4945379932   -1.6929837480    3.0237365607
N        1.0148358109   -2.5135136346    4.5018486895
O        3.3513451373    1.4436901462    2.2565442765
O        1.9878642539    1.8184027493    0.4385311760
H       -0.3350654107    0.7865095708    0.7538592316
H        2.6373281318   -0.5952202921    3.5210118364
H       -1.8497049090   -0.9213359282    1.6354958982
H        1.6402481272    4.4745281612    0.3761512410
H        2.8459028479    4.1055784376    1.6361427979
H        3.3517694120    4.8892378238    0.1249137333
H        3.0850373078   -2.9097305752    4.3100054784
H        2.3265291157   -3.5701853811    5.7699050414
H        2.6448397975   -1.8276945958    5.6654400724
H        3.9476341276    2.4748136070    0.0871467216
H        2.7657419779    2.8659672061   -1.1630583114
H        0.2382433581   -3.1383627816    4.6869144020
25   

C        0.0014647530    0.0232529729    1.4471722962
C        1.6331767285   -0.6590573192    3.0337092134
C       -0.8620722152   -0.9224978448    1.9993762239
C        1.2886617472    0.1698137672    1.9688291751
C        0.7095277171   -1.5862156419    3.5229892120
C        2.3164778368    1.1413422201    1.4788156812
C        2.7401601001    4.1390549752    0.7286298808
C        2.3081455583   -2.6137528018    5.1680699043
C        2.7782792740    2.8526384086   -0.0906054519
N       -0.5130962097   -1.7157040816    3.0217504203
N        0.9826265685   -2.4480323872    4.5587150659
O        3.4312454096    1.2111947272    1.9909388900
O        1.8634430729    1.8860432065    0.4460764992
H       -0.3383535800    0.6338910069    0.6198220080
H        2.6136319807   -0.5916102317    3.4841739334
H       -1.8578818756   -1.0221890420    1.5832610575
H        1.7247787173    4.5463129607    0.7420795629
H        3.0625322109    3.9477227164    1.7566642502
H        3.4115372547    4.8809485397    0.2865761516
H        3.0537018781   -2.8562322560    4.4033851866
H        2.2842890908   -3.4341817230    5.8923208977
H        2.6055665299   -1.7004752540    5.6937470523
H        3.8002506252    2.4580222189   -0.1163859663
H        2.4892494727    3.0759387706   -1.1223792164
H        0.2046077663   -3.0621324691    4.7716544439
