28   

C       -0.9864305544    0.3276409411    0.5217250931
C       -2.0409336985   -0.5895517441    0.6208306418
C       -1.7878435500    1.4789605785    2.5031843350
C       -3.9210815156    0.3917739006    3.5397769427
C       -2.8339444965    0.5554036701    2.5899831083
C       -0.8416027276    1.3739990960    1.4579440243
C       -2.9511025821   -0.4560448796    1.6616705367
C       -4.6570454247   -0.7109892841    3.1426344409
C       -5.7902527125   -1.3931287484    3.7610273493
C        1.2176044050    2.2844757836    2.5629078443
C       -0.2032474640    3.7696744429    1.0968235005
C        0.3123450483    2.3470653829    1.3292559452
N       -4.0551455370   -1.2375633908    1.9771119569
O       -6.1773432009   -2.5078616311    3.4361591648
O       -6.3724323939   -0.7090110484    4.7738566598
H       -0.2745531712    0.2218154394   -0.2887740641
H       -2.1447446450   -1.3924837725   -0.0980159455
H       -1.7103709393    2.2651781381    3.2438487730
H       -4.1130630198    0.9999325400    4.4155263094
H        0.6734034477    2.5783881378    3.4654241929
H        2.0726788665    2.9562435258    2.4385670591
H        1.5962975819    1.2663582709    2.6984285504
H       -0.8001172087    4.1145147569    1.9465126436
H       -0.8254268707    3.7997460507    0.1966671905
H        0.6363180343    4.4580740792    0.9587483062
H        0.9162808265    2.0657643659    0.4599780733
H       -4.3670055015   -2.0780264264    1.4945206441
H       -7.0858100737   -1.2860246342    5.0903276932
28   

C       -0.7191893534    0.1396857896    0.7973089490
C       -1.7288352977   -0.8220872474    0.9347560357
C       -1.8743699061    1.5911756974    2.3631891778
C       -4.0728014776    0.5522982142    3.3072384975
C       -2.8724270078    0.6206342726    2.4923664921
C       -0.7737942783    1.3587295144    1.5067734271
C       -2.7943245815   -0.5599100232    1.7866851001
C       -4.6811426212   -0.6639054536    3.0512502774
C       -5.8041141019   -1.3321243718    3.7081728754
C        1.0248087463    2.6519737246    2.6881133206
C       -0.1997042857    3.6673093452    0.7277085507
C        0.3382444183    2.3751304896    1.3471041111
N       -3.8866247948   -1.3556466023    2.1081888081
O       -5.9340257219   -2.5466154377    3.7764410529
O       -6.6703832169   -0.4929075152    4.3225466528
H        0.1148315896   -0.0670276202    0.1365838527
H       -1.6780541715   -1.7580872066    0.3929782706
H       -1.9509685959    2.5107379019    2.9299753596
H       -4.4115945938    1.2917203521    4.0227864025
H        0.3239158130    3.0859005445    3.4074564846
H        1.8561628317    3.3502637655    2.5496916849
H        1.4227502339    1.7211802065    3.1047626837
H       -0.9495217676    4.1301473600    1.3763750335
H       -0.6598160288    3.4537194198   -0.2423244341
H        0.6158691650    4.3805507163    0.5729963569
H        1.0935890327    1.9681349976    0.6664264000
H       -4.0548727106   -2.3101664308    1.7973786523
H       -7.3325055899   -1.0709990235    4.7340742106
28   

C       -0.7446486015    0.1688269739    0.7513369488
C       -1.7605364139   -0.7880596562    0.8772749525
C       -1.8844605952    1.6035334729    2.3434994791
C       -4.0776410552    0.5582784488    3.2905572827
C       -2.8882239851    0.6374906406    2.4614859099
C       -0.7881777509    1.3768538335    1.4801643331
C       -2.8211303033   -0.5322203082    1.7373417244
C       -4.6936213610   -0.6508097569    3.0216005853
C       -5.7700641126   -1.3410629969    3.7408592179
C        1.0184153928    2.6416288635    2.6820871806
C       -0.1936591072    3.6894140016    0.7311620441
C        0.3327187122    2.3859261788    1.3362156971
N       -3.9123162779   -1.3301791581    2.0580586646
O       -5.7641513957   -2.5341678982    4.0049147043
O       -6.7434726884   -0.5210692398    4.2005090144
H        0.0865203805   -0.0338966378    0.0857974868
H       -1.7166051974   -1.7167805621    0.3225535915
H       -1.9516060948    2.5134669549    2.9267746073
H       -4.3950386667    1.2790289894    4.0342885210
H        0.3197540366    3.0733802532    3.4048865115
H        1.8559374967    3.3344449456    2.5536106612
H        1.4076445011    1.7029047090    3.0890765379
H       -0.9420686900    4.1495736214    1.3833669555
H       -0.6524070272    3.4909877072   -0.2427175433
H        0.6276360614    4.3984032354    0.5876068782
H        1.0867069407    1.9810410649    0.6527819247
H       -4.0698434623   -2.2867556755    1.7493028292
H       -7.3531933346   -1.1000026116    4.6852051212
28   

C       -0.7785003010    0.1823215720    0.7134469052
C       -1.8012023098   -0.7682036722    0.8332042018
C       -1.8947889677    1.6027747193    2.3345637823
C       -4.0827710294    0.5567259811    3.2907124850
C       -2.9049568654    0.6427403415    2.4465584462
C       -0.8067733960    1.3799744573    1.4599436986
C       -2.8531961563   -0.5166560720    1.7051675987
C       -4.7088442116   -0.6439031980    3.0121550669
C       -5.7521873969   -1.3441299480    3.7827636174
C        1.0149033099    2.6165029997    2.6703067651
C       -0.1953975163    3.6952343128    0.7353312051
C        0.3223808292    2.3810086689    1.3240814464
N       -3.9450223035   -1.3135240072    2.0273401422
O       -5.6274556102   -2.4655034200    4.2472446862
O       -6.8406144286   -0.5867213483    4.0502659999
H        0.0466310581   -0.0177741831    0.0396501041
H       -1.7677774131   -1.6897600097    0.2659769082
H       -1.9495236834    2.5038922615    2.9326230089
H       -4.3785116604    1.2627169015    4.0570352176
H        0.3226873549    3.0466516654    3.4002151596
H        1.8578898384    3.3034861971    2.5462332934
H        1.3975554006    1.6702820134    3.0660188761
H       -0.9382929279    4.1536819653    1.3950183113
H       -0.6585854612    3.5112957280   -0.2392833489
H        0.6310210638    4.3993357687    0.5972550606
H        1.0708472655    1.9774667210    0.6338193438
H       -4.1026208938   -2.2667094238    1.7098821279
H       -7.4119185316   -1.1492069409    4.5970205389
28   

C       -0.7908551792    0.1986832744    0.6994279318
C       -1.8157974269   -0.7490448981    0.8221620231
C       -1.8781963300    1.6038992214    2.3531316573
C       -4.0580945481    0.5560275521    3.3260618367
C       -2.8907041669    0.6466189029    2.4679666219
C       -0.8037342869    1.3874781366    1.4603287253
C       -2.8543710632   -0.5038114527    1.7119086469
C       -4.6915295561   -0.6365995712    3.0422404410
C       -5.7436563493   -1.3296083416    3.8250237614
C        1.0375584242    2.6073530221    2.6586743872
C       -0.1944526255    3.7071946987    0.7494594505
C        0.3269233741    2.3861507260    1.3194864837
N       -3.9462256247   -1.2990267135    2.0381976496
O       -5.5533278557   -2.3220947437    4.5044438432
O       -6.9415064325   -0.7022760151    3.8115608576
H        0.0237931026    0.0035407506    0.0115622502
H       -1.7941997740   -1.6635817610    0.2431582749
H       -1.9209516901    2.4982033049    2.9622784178
H       -4.3407727992    1.2558944398    4.1027157925
H        0.3563110975    3.0331254889    3.4013458309
H        1.8810637109    3.2928162356    2.5297955467
H        1.4222668471    1.6564288679    3.0408757411
H       -0.9276613763    4.1615054355    1.4227138662
H       -0.6704836155    3.5335539663   -0.2208519073
H        0.6321463099    4.4102857694    0.6073739101
H        1.0652130714    1.9867476537    0.6159818251
H       -4.1178176943   -2.2412777003    1.6977860911
H       -7.5114870798   -1.2319673994    4.3913031219
28   

C       -0.7409154698    0.1692357129    0.8096622171
C       -1.7429452040   -0.7940611700    0.9852904013
C       -1.7922546262    1.5820405930    2.4807075859
C       -3.9463953113    0.5322985146    3.5148979507
C       -2.7843278519    0.6106047349    2.6464396293
C       -0.7479937572    1.3700435624    1.5513260872
C       -2.7529428343   -0.5516269783    1.9078589832
C       -4.5678453863   -0.6674623433    3.2654296198
C       -5.7607136132   -1.2733499419    3.9280683613
C        1.1326185327    2.6252955125    2.6392254550
C       -0.2263201123    3.7030396679    0.8045553525
C        0.3512396830    2.3915455377    1.3430211651
N       -3.8345569582   -1.3468124169    2.2642335785
O       -5.7207123935   -2.0011817551    4.8993623941
O       -6.9343355641   -0.9422553528    3.3438254569
H        0.0486752690   -0.0208053990    0.0917916366
H       -1.7300751628   -1.7143323967    0.4151890181
H       -1.8323441294    2.4887944256    3.0713637964
H       -4.2577463814    1.2717180406    4.2423086773
H        0.4853200836    3.0345606787    3.4205889260
H        1.9528340857    3.3285137584    2.4642129261
H        1.5580447799    1.6817040601    2.9955532817
H       -0.9255040758    4.1466024593    1.5197861727
H       -0.7562331645    3.5203447640   -0.1357284440
H        0.5781381291    4.4200112481    0.6131510561
H        1.0545505892    2.0063920663    0.5970045915
H       -4.0457829569   -2.2676689648    1.8904831857
H       -7.6149758010   -1.3888965555    3.8716873797
28   

C       -0.7091436372    0.0989665358    0.9149790898
C       -1.6958770709   -0.8700047545    1.1400932517
C       -1.7279244672    1.5385111868    2.5831321228
C       -3.8724605688    0.5156319156    3.6605215502
C       -2.7064821621    0.5626541290    2.7957491978
C       -0.7081064525    1.3161680929    1.6295476219
C       -2.6829345729   -0.6164559291    2.0843103997
C       -4.4942707223   -0.6959417128    3.4531348401
C       -5.8127149268   -1.1594621454    3.9537379226
C        1.2090994319    2.5936735254    2.6136307546
C       -0.2484028203    3.6544930530    0.8461496059
C        0.3667015472    2.3490486439    1.3590361447
N       -3.7652972598   -1.3995211214    2.4650290713
O       -6.0629183745   -1.5071615922    5.0908484677
O       -6.7349409179   -1.2824754705    2.9707033305
H        0.0591610291   -0.0972777453    0.1760017947
H       -1.6940340753   -1.7993909791    0.5848360680
H       -1.7656610452    2.4611987945    3.1487700113
H       -4.2172300991    1.3032094659    4.3192783166
H        0.5959955833    2.9960780128    3.4256174465
H        2.0114724778    3.3058389615    2.3971888316
H        1.6620974152    1.6552387930    2.9489163952
H       -0.9117672045    4.0976534990    1.5948981292
H       -0.8256538219    3.4644373799   -0.0643418472
H        0.5397134632    4.3762344778    0.6097648636
H        1.0343239246    1.9680936523    0.5788651309
H       -4.0319183755   -2.2903811360    2.0555757396
H       -7.5319550932   -1.6131036390    3.4147416696
28   

C       -0.7026075469    0.1240954656    0.9331309133
C       -1.6959402010   -0.8326678212    1.1813598014
C       -1.6877708971    1.5932643572    2.5953823061
C       -3.8328451403    0.6090382497    3.7041335985
C       -2.6733338756    0.6298772030    2.8303077884
C       -0.6811911247    1.3495788069    1.6332239334
C       -2.6694468619   -0.5585587415    2.1339373094
C       -4.4701540256   -0.6024412540    3.5213735214
C       -5.7970469325   -1.0163893167    4.0153400257
C        1.2703368606    2.6043378142    2.5743332408
C       -0.2087935336    3.6824359153    0.8357598298
C        0.3995761522    2.3693133474    1.3375257227
N       -3.7574160620   -1.3242960747    2.5344299433
O       -6.1430820753   -1.0740225870    5.1799780831
O       -6.6002808519   -1.4865156341    3.0304701396
H        0.0548218463   -0.0881386421    0.1873859600
H       -1.7100274407   -1.7683130190    0.6368900068
H       -1.7105684110    2.5230721929    3.1500824397
H       -4.1683929338    1.4122812334    4.3488599566
H        0.6783463384    3.0136873041    3.3984695221
H        2.0763460716    3.3071046596    2.3413366842
H        1.7190850652    1.6607127407    2.9006498955
H       -0.8491787919    4.1364092849    1.5978915460
H       -0.8084071618    3.4990788449   -0.0615402951
H        0.5838615148    4.3928419855    0.5809014841
H        1.0457782065    1.9791248112    0.5440075036
H       -4.0564448000   -2.2052923695    2.1250341386
H       -7.4164879704   -1.7541889345    3.4825292691
28   

C       -0.7185388635    0.1453871148    0.9037263044
C       -1.7220236926   -0.8037989139    1.1403056862
C       -1.6883398679    1.6049368239    2.5833896252
C       -3.8410039543    0.6292100642    3.6840221314
C       -2.6838799056    0.6492293238    2.8068741529
C       -0.6843122624    1.3621693792    1.6184171003
C       -2.6927672824   -0.5310207946    2.0960630702
C       -4.4920259588   -0.5742330348    3.4858596909
C       -5.8049862226   -0.9857437453    3.9977311689
C        1.2761934534    2.5902933229    2.5775805083
C       -0.1866722045    3.6965182451    0.8430119505
C        0.4076517012    2.3736482569    1.3357581692
N       -3.7876576458   -1.2907547933    2.4894557649
O       -6.2134288495   -0.8290928908    5.1335999578
O       -6.5195915115   -1.7063861256    3.0979948768
H        0.0369989416   -0.0660246211    0.1558394214
H       -1.7456035049   -1.7329525415    0.5851455185
H       -1.7011335033    2.5279570178    3.1496605859
H       -4.1645074818    1.4240968011    4.3453076057
H        0.6854251326    2.9990393873    3.4028873729
H        2.0898718071    3.2869522194    2.3530271301
H        1.7145382444    1.6397944733    2.8980201209
H       -0.8260061458    4.1495599770    1.6066005334
H       -0.7843842751    3.5263530589   -0.0581453405
H        0.6133930638    4.4018555706    0.5974141241
H        1.0531143249    1.9839572985    0.5414015345
H       -4.0987218331   -2.1664747007    2.0766560218
H       -7.3379610916   -1.9412084767    3.5645915049
28   

C       -0.7403426207    0.1702153306    0.8629824531
C       -1.7560250245   -0.7710055748    1.0783466071
C       -1.7069696850    1.6167230853    2.5558138500
C       -3.8732862278    0.6455670734    3.6338154792
C       -2.7145159297    0.6690199735    2.7584791019
C       -0.6981521720    1.3762693221    1.5952456020
C       -2.7310541833   -0.5010333142    2.0304785271
C       -4.5359977470   -0.5478606947    3.4122954464
C       -5.8264074028   -0.9786581975    3.9521444807
C        1.2661748209    2.5700640449    2.5905810940
C       -0.1656484490    3.7135177758    0.8542512902
C        0.4085131771    2.3782525540    1.3370405768
N       -3.8337492889   -1.2567757256    2.4094796736
O       -6.2991767223   -0.6495571103    5.0249264598
O       -6.4499843954   -1.8964066157    3.1706952607
H        0.0191206070   -0.0394120777    0.1185806713
H       -1.7847870506   -1.6925724978    0.5109156453
H       -1.7130860774    2.5310415591    3.1361595052
H       -4.1854100766    1.4266878559    4.3168179662
H        0.6715117365    2.9760156555    3.4144634455
H        2.0902140153    3.2597722533    2.3829665672
H        1.6901140522    1.6108403542    2.9043442031
H       -0.8083554944    4.1641368361    1.6164517958
H       -0.7552779924    3.5609656179   -0.0553402190
H        0.6448021731    4.4128126726    0.6260709508
H        1.0581492364    1.9907762541    0.5450086078
H       -4.1430879144   -2.1354259042    2.0008047164
H       -7.2667939250   -2.1119973357    3.6494170726
28   

C       -0.7424707816    0.2164505669    0.8118383260
C       -1.7697002128   -0.7160287918    1.0097469593
C       -1.6911116444    1.6429870660    2.5316590543
C       -3.8616785239    0.6727133667    3.6019861071
C       -2.7097386182    0.7037894225    2.7175977486
C       -0.6855628518    1.4081554302    1.5662888547
C       -2.7413310314   -0.4518971522    1.9669438615
C       -4.5400916984   -0.5068694271    3.3555514157
C       -5.7976079818   -0.9650496595    3.9413779777
C        1.2833791490    2.5726328699    2.5907569937
C       -0.1223270411    3.7447701800    0.8522115830
C        0.4346229561    2.4000098758    1.3281679302
N       -3.8492568007   -1.2042870788    2.3372986937
O       -6.3343521811   -0.5044209199    4.9328328499
O       -6.3297487732   -2.0337471085    3.2950998199
H        0.0149220601    0.0109376643    0.0641901378
H       -1.8089684981   -1.6271702707    0.4263311302
H       -1.6851013610    2.5456401431    3.1300022930
H       -4.1531787016    1.4343718457    4.3155367639
H        0.6865202908    2.9792777289    3.4126791258
H        2.1168219522    3.2546296038    2.3955368914
H        1.6939354435    1.6064322655    2.9008733142
H       -0.7685492793    4.1938249453    1.6123989377
H       -0.7044419531    3.6058809907   -0.0643865612
H        0.6966404849    4.4386368180    0.6383693525
H        1.0875573742    2.0126962674    0.5387759277
H       -4.1548087670   -2.0879526059    1.9361820415
H       -7.1404140388   -2.2396201072    3.7884540242
28   

C       -0.7819191603    0.2344676656    0.7772702609
C       -1.8239802710   -0.6845613699    0.9601145452
C       -1.7179913907    1.6568754816    2.5073607172
C       -3.9008748495    0.7017331899    3.5659915564
C       -2.7512417930    0.7309735569    2.6785079158
C       -0.7109337582    1.4170243452    1.5448249004
C       -2.7965063072   -0.4160178353    1.9151794739
C       -4.5963085683   -0.4641253137    3.3025064698
C       -5.8215452716   -0.9477713425    3.9326791651
C        1.2683497885    2.5402067583    2.5962838990
C       -0.1047020369    3.7504416015    0.8577557860
C        0.4270731047    2.3927634261    1.3253659067
N       -3.9126727324   -1.1597563364    2.2783024913
O       -6.4421167964   -0.3834280649    4.8158495214
O       -6.2440795686   -2.1388345879    3.4365057723
H       -0.0231857581    0.0249661398    0.0320933910
H       -1.8728188166   -1.5897166091    0.3681660225
H       -1.7004003093    2.5519054104    3.1168279340
H       -4.1728552553    1.4494343825    4.3017117018
H        0.6716407143    2.9489505106    3.4172684173
H        2.1141391624    3.2104906425    2.4139889399
H        1.6609887062    1.5648014688    2.9007554292
H       -0.7502610918    4.2022145587    1.6169036735
H       -0.6811958508    3.6292563676   -0.0648792977
H        0.7267773422    4.4333426173    0.6573573379
H        1.0802634386    2.0023523834    0.5377148890
H       -4.2107457763   -2.0525584585    1.8918953558
H       -7.0526760086   -2.3389843827    3.9356193005
28   

C       -0.7994862976    0.2664483651    0.7399866621
C       -1.8510724766   -0.6446458634    0.9071989635
C       -1.7286485653    1.6759069657    2.4843467132
C       -3.9174267811    0.7216335631    3.5317246204
C       -2.7712555916    0.7577628746    2.6400637360
C       -0.7199115488    1.4382651204    1.5229988890
C       -2.8246562842   -0.3787875041    1.8619302406
C       -4.6235517380   -0.4336223820    3.2503700097
C       -5.8116275527   -0.9527619262    3.9237487212
C        1.2641648169    2.5281348538    2.6014420336
C       -0.0832861883    3.7718179404    0.8664827411
C        0.4304719626    2.4036075733    1.3229362158
N       -3.9442388568   -1.1209379456    2.2175995363
O       -6.5321557814   -0.3307616817    4.6834922571
O       -6.1005619108   -2.2349960511    3.5841070625
H       -0.0392464739    0.0584267788   -0.0040695822
H       -1.9052782078   -1.5426810445    0.3049619918
H       -1.7035772051    2.5618340220    3.1067114484
H       -4.1728501707    1.4516281230    4.2907485802
H        0.6663113644    2.9349626740    3.4225369301
H        2.1187046088    3.1907432350    2.4323282166
H        1.6437585359    1.5452634485    2.8983778652
H       -0.7297901173    4.2218839111    1.6258465956
H       -0.6540741542    3.6668014581   -0.0616586903
H        0.7568707596    4.4479480325    0.6798244772
H        1.0852753800    2.0146177913    0.5359200857
H       -4.2287027116   -2.0231240005    1.8430837595
H       -6.9065107094   -2.4450027863    4.0834105396
28   

C       -0.8611267211    0.2760562669    0.7108632931
C       -1.9256379303   -0.6223048635    0.8646552680
C       -1.7672089278    1.6694186566    2.4800402605
C       -3.9605413343    0.7219725115    3.5239744369
C       -2.8222705001    0.7634213333    2.6227895769
C       -0.7635485510    1.4334937733    1.5129684122
C       -2.8938774305   -0.3582931441    1.8253485621
C       -4.6860709524   -0.4163111872    3.2232415021
C       -5.8386814728   -0.9680592267    3.9368512601
C        1.2287624189    2.4897055201    2.6133009728
C       -0.0916869316    3.7614813664    0.8779494548
C        0.4016746570    2.3840786833    1.3285991612
N       -4.0195393121   -1.0938754143    2.1753889915
O       -6.6632245739   -0.3301812168    4.5660720401
O       -5.9841452817   -2.3054909287    3.7582726092
H       -0.1045292446    0.0689454804   -0.0371523734
H       -1.9928782698   -1.5100962622    0.2487040475
H       -1.7275862771    2.5435874833    3.1180648222
H       -4.1913954414    1.4317546305    4.3094546388
H        0.6317479122    2.9003488321    3.4330712505
H        2.0934182172    3.1414068830    2.4534083336
H        1.5929716367    1.5000614358    2.9069798791
H       -0.7389517046    4.2135323926    1.6355132832
H       -0.6563373587    3.6698223859   -0.0553517979
H        0.7579932876    4.4286983010    0.7027163869
H        1.0568980108    1.9916716616    0.5436286734
H       -4.2971028920   -2.0004180718    1.8067826637
H       -6.7867156555   -2.5335810485    4.2549490240
28   

C       -0.8958480707    0.3007649421    0.6803669084
C       -1.9754856261   -0.5815792599    0.8209248926
C       -1.7866154048    1.6909622748    2.4596796723
C       -3.9938153491    0.7631082391    3.4915516086
C       -2.8566081460    0.8006029755    2.5892873537
C       -0.7827555852    1.4483344397    1.4944970214
C       -2.9432850821   -0.3113760491    1.7803920103
C       -4.7373286877   -0.3591525146    3.1767644894
C       -5.8680229722   -0.9306431795    3.9184847065
C        1.2198020191    2.4620417096    2.6171817299
C       -0.0673852346    3.7691355567    0.8830848578
C        0.3998133703    2.3802880393    1.3260791077
N       -4.0786638593   -1.0355684157    2.1227338835
O       -6.8039965676   -0.3109462785    4.3891141453
O       -5.8585696906   -2.2868306472    3.9318215146
H       -0.1391253978    0.0883065774   -0.0660239802
H       -2.0537558861   -1.4627358110    0.1968077531
H       -1.7346274298    2.5571283661    3.1076349189
H       -4.2058416057    1.4601532412    4.2934063718
H        0.6244136774    2.8766201817    3.4361434278
H        2.0964700826    3.1001328178    2.4681299982
H        1.5652276885    1.4641748977    2.9056998955
H       -0.7126227385    4.2256574865    1.6397019621
H       -0.6267192249    3.6941724558   -0.0548929637
H        0.7944437760    4.4235417744    0.7192758546
H        1.0538879102    1.9830028585    0.5426031559
H       -4.3522609872   -1.9441784164    1.7571898704
H       -6.6627403544   -2.5341124862    4.4163253547
28   

C       -0.9225942797    0.3168775711    0.6560022124
C       -2.0107902743   -0.5566316695    0.7845845600
C       -1.8016134583    1.6928552689    2.4521359527
C       -4.0162755048    0.7696781885    3.4731167595
C       -2.8801357435    0.8110499041    2.5698172903
C       -0.7992622419    1.4529002312    1.4846395930
C       -2.9766731161   -0.2892316803    1.7467809542
C       -4.7699200906   -0.3396920674    3.1436219910
C       -5.8940696780   -0.9315941741    3.8932503350
C        1.2088807802    2.4380236348    2.6240771494
C       -0.0601149405    3.7716131142    0.8966660060
C        0.3928457485    2.3749210672    1.3293641620
N       -4.1176870923   -1.0084212749    2.0803630329
O       -6.9383429236   -0.3764327842    4.1773857444
O       -5.7256667595   -2.2544798656    4.1336381255
H       -0.1671050664    0.1063605748   -0.0921935112
H       -2.0965692614   -1.4293448817    0.1496897674
H       -1.7415010160    2.5498851031    3.1114087978
H       -4.2164467981    1.4540888990    4.2885780617
H        0.6146701611    2.8515137501    3.4444238825
H        2.0921280294    3.0689196146    2.4834492131
H        1.5437824551    1.4345398141    2.9054392758
H       -0.7046044982    4.2270073818    1.6546041573
H       -0.6161130620    3.7097444358   -0.0442508158
H        0.8081289875    4.4197688432    0.7421796699
H        1.0462953264    1.9783677711    0.5449888837
H       -4.3916601740   -1.9113994815    1.7025446707
H       -6.5352021273   -2.5280208738    4.5941034777
28   

C       -0.9246733092    0.2880050802    0.6435230998
C       -1.9992315310   -0.6038812117    0.7579214676
C       -1.8371807434    1.6343523214    2.4456383952
C       -4.0482813151    0.6699306682    3.4391282235
C       -2.9026454394    0.7347733210    2.5486987182
C       -0.8247647368    1.4184661725    1.4827278509
C       -2.9750555312   -0.3601515338    1.7162942242
C       -4.7772240244   -0.4476294908    3.0966810807
C       -5.9288305161   -1.0575531594    3.8076997447
C        1.1706251625    2.4090833499    2.6359555226
C       -0.1198622873    3.7598962919    0.9378421472
C        0.3529017764    2.3610667893    1.3418864035
N       -4.1080105520   -1.0988012158    2.0332400233
O       -7.0651516508   -0.6275459136    3.8273465415
O       -5.6286835913   -2.2533729985    4.3661949107
H       -0.1615156332    0.0962473685   -0.1019369565
H       -2.0672067906   -1.4720176196    0.1146553578
H       -1.7950295845    2.4869540235    3.1119838420
H       -4.2708916736    1.3503244665    4.2519097484
H        0.5715616585    2.7958657385    3.4657686527
H        2.0440946078    3.0559071437    2.5071696121
H        1.5209794497    1.4049394602    2.8953420926
H       -0.7673373989    4.1924920632    1.7064676597
H       -0.6782295484    3.7090253877   -0.0023289483
H        0.7394051609    4.4221242825    0.7931261706
H        1.0097680793    1.9895118389    0.5481693372
H       -4.3739792376   -1.9902495700    1.6246437565
H       -6.4573146174   -2.5562394062    4.7703721052
28   

C       -0.8217960196    0.2400541780    0.7080053781
C       -1.8624534477   -0.6893308287    0.8349900834
C       -1.7635744989    1.5568306981    2.5171151285
C       -3.9601724292    0.5444208695    3.4978403269
C       -2.7970236206    0.6217171539    2.6307391271
C       -0.7540429999    1.3752447642    1.5439519026
C       -2.8371038714   -0.4778502010    1.8021171625
C       -4.6512399243   -0.5942563146    3.1606607866
C       -5.9479945077   -1.1089150896    3.6923408626
C        1.2361654573    2.4194873743    2.6491036700
C       -0.1534839188    3.7538733316    1.0173713150
C        0.3808897353    2.3654029555    1.3805936553
N       -3.9578248521   -1.2386894318    2.1092318517
O       -7.0409112536   -0.8423953158    3.2349022983
O       -5.8117749630   -1.9273977223    4.7599935629
H       -0.0626371211    0.0766677617   -0.0482287208
H       -1.9100859131   -1.5565470334    0.1886561589
H       -1.7494539321    2.4160544525    3.1760685898
H       -4.2459140547    1.2614176844    4.2574944595
H        0.6479631522    2.7657305010    3.5042613426
H        2.0800052118    3.1018826910    2.5073007156
H        1.6318846454    1.4244339028    2.8762459449
H       -0.7882443090    4.1521739657    1.8145277485
H       -0.7414924130    3.6996483485    0.0956187984
H        0.6772426167    4.4478580744    0.8555768880
H        1.0243831328    2.0326866483    0.5591642360
H       -4.2438553490   -2.0939250291    1.6412135428
H       -6.7168096714   -2.1770597075    5.0048992116
28   

C       -0.7439197660    0.1572864389    0.7589818188
C       -1.7460324563   -0.8104615156    0.9106159506
C       -1.6912244787    1.4398041149    2.5891296379
C       -3.8513081735    0.3746548659    3.5871694686
C       -2.6873636545    0.4681725707    2.7247178640
C       -0.6992222980    1.2956426526    1.5923582551
C       -2.7061618040   -0.6339641947    1.8992635031
C       -4.5177212593   -0.7890634660    3.2618941724
C       -5.8931500848   -1.1982705473    3.6370293352
C        1.2926311954    2.4020262949    2.6248766838
C       -0.2159160644    3.7073311512    1.0779218621
C        0.3858898124    2.3342672672    1.3939622822
N       -3.8084674403   -1.4199705968    2.2124634947
O       -6.8444208643   -1.1888765178    2.8768579809
O       -6.0403164601   -1.4929604833    4.9485444129
H        0.0002054141    0.0239519625   -0.0178008050
H       -1.7804557812   -1.6759040133    0.2610670431
H       -1.6985583233    2.3030947099    3.2428445689
H       -4.1830523726    1.1176680634    4.3018646474
H        0.7278036895    2.7086576310    3.5104340386
H        2.1011791305    3.1209409493    2.4599429064
H        1.7374196353    1.4202237029    2.8158939604
H       -0.8267149314    4.0713607871    1.9093954112
H       -0.8436979602    3.6449472994    0.1833083230
H        0.5803555609    4.4342299065    0.8894001170
H        1.0041594700    2.0401067617    0.5391374324
H       -4.1146442084   -2.2441566167    1.7024301976
H       -6.9828544850   -1.6956499472    5.0585036887
28   

C       -0.7579410055    0.1641598465    0.7396962721
C       -1.7583552999   -0.8059171755    0.8876194041
C       -1.6846070378    1.4183043369    2.5998627806
C       -3.8344114143    0.3388104427    3.6042226102
C       -2.6790873801    0.4445097907    2.7317004032
C       -0.7040765484    1.2897766004    1.5897049777
C       -2.7072932320   -0.6447553442    1.8895331408
C       -4.5059452877   -0.8219427994    3.2684075845
C       -5.8724523689   -1.2385256555    3.6315096434
C        1.2965768268    2.3858081839    2.6170233072
C       -0.2290757219    3.7081759773    1.1016528870
C        0.3779037280    2.3322011633    1.3942900153
N       -3.8073494281   -1.4343813519    2.2013747156
O       -6.7562650720   -1.4747885331    2.8241463212
O       -6.1182738515   -1.2205619301    4.9616027903
H       -0.0227023307    0.0429102551   -0.0474535531
H       -1.8004661063   -1.6612201141    0.2251892605
H       -1.6849398276    2.2717171569    3.2664736292
H       -4.1605206324    1.0714990103    4.3322036889
H        0.7401539698    2.6806555445    3.5118492592
H        2.1025574558    3.1078367222    2.4531282563
H        1.7444338578    1.4023064220    2.7913744707
H       -0.8324666700    4.0604133563    1.9435586707
H       -0.8653629547    3.6561691881    0.2123954767
H        0.5641610573    4.4388113808    0.9148007061
H        0.9882084420    2.0498649472    0.5298108042
H       -4.1307733620   -2.2420610884    1.6748485711
H       -7.0537179768   -1.4634544187    5.0491612225
28   

C       -0.7797343918    0.1994883488    0.7074162783
C       -1.7853568460   -0.7663982866    0.8463662198
C       -1.6867327298    1.4299927630    2.5930854708
C       -3.8314042601    0.3422325033    3.6013901004
C       -2.6862602683    0.4602407806    2.7164800775
C       -0.7133563403    1.3111134497    1.5747666436
C       -2.7266008644   -0.6152381501    1.8569296713
C       -4.5104849702   -0.8114995654    3.2529426883
C       -5.8466392577   -1.2737979431    3.6447136256
C        1.2973675639    2.3808108734    2.6116583162
C       -0.2233620457    3.7313690410    1.1161781115
C        0.3755540399    2.3482461761    1.3904113518
N       -3.8258787243   -1.4060731763    2.1674976789
O       -6.6656075215   -1.7429806067    2.8685574269
O       -6.1574033964   -1.0353138550    4.9399907133
H       -0.0496251710    0.0854064722   -0.0855574665
H       -1.8363503165   -1.6118539103    0.1719978153
H       -1.6763817293    2.2719576610    3.2740299277
H       -4.1416069606    1.0567207155    4.3541447510
H        0.7452196381    2.6687863652    3.5113458745
H        2.1079431753    3.0991969488    2.4545334783
H        1.7388978279    1.3922640121    2.7731828184
H       -0.8231940097    4.0764314646    1.9635915345
H       -0.8615294412    3.6942835213    0.2275219575
H        0.5740168948    4.4594061283    0.9370345147
H        0.9822711850    2.0725565559    0.5212730118
H       -4.1575841610   -2.2098163584    1.6391492099
H       -7.0704152943   -1.3480590453    5.0422312382
28   

C       -0.8191408308    0.2272791963    0.6715790763
C       -1.8334227723   -0.7304168656    0.8032402152
C       -1.7038803555    1.4415344281    2.5784260723
C       -3.8450890314    0.3524985424    3.5947048168
C       -2.7118430954    0.4796939431    2.6951719006
C       -0.7369673003    1.3263338716    1.5534608413
C       -2.7672347948   -0.5837432897    1.8212135188
C       -4.5345213537   -0.7925578969    3.2365307664
C       -5.8312240936   -1.3082785185    3.6743937770
C        1.2859692455    2.3634039622    2.6014534557
C       -0.2198965397    3.7442827412    1.1185283063
C        0.3639799170    2.3524585978    1.3797406185
N       -3.8663919897   -1.3734418237    2.1341210230
O       -6.5694137211   -1.9889497970    2.9756171731
O       -6.2046947139   -0.9015016515    4.9101989295
H       -0.0935713419    0.1156988445   -0.1259030731
H       -1.8951538561   -1.5677126166    0.1196300496
H       -1.6799576160    2.2729170871    3.2719238711
H       -4.1330557053    1.0473622323    4.3743036178
H        0.7373076932    2.6497579612    3.5037756233
H        2.1048205401    3.0737586412    2.4508281417
H        1.7161431265    1.3684656392    2.7542133226
H       -0.8168988849    4.0870775292    1.9688682444
H       -0.8576475058    3.7224087936    0.2290756867
H        0.5853067132    4.4655142618    0.9470874358
H        0.9680732893    2.0781549548    0.5083384927
H       -4.1998168723   -2.1830255432    1.6150636797
H       -7.0835697252   -1.2893520757    5.0484071540
28   

C       -0.8908735126    0.2300974959    0.6208647099
C       -1.9188698625   -0.7134186538    0.7474853780
C       -1.7422718371    1.4321051481    2.5507069273
C       -3.8808115058    0.3506523709    3.5824137867
C       -2.7634871707    0.4838177999    2.6633759135
C       -0.7848730903    1.3155517116    1.5169111902
C       -2.8420914191   -0.5664244672    1.7749221073
C       -4.5873763992   -0.7815025797    3.2157750104
C       -5.8371037687   -1.3473621823    3.7156515751
C        1.2532113519    2.3147246346    2.5758926136
C       -0.2276557443    3.7250709407    1.0953542746
C        0.3339328163    2.3235389346    1.3518060831
N       -3.9432573770   -1.3506577683    2.0936549538
O       -6.4818163694   -2.2064048139    3.1287967693
O       -6.2681291909   -0.8125068153    4.8822385024
H       -0.1720626617    0.1169857825   -0.1824998519
H       -1.9972019978   -1.5420431927    0.0550533656
H       -1.6982888613    2.2519859165    3.2568092330
H       -4.1368772898    1.0229424729    4.3924188413
H        0.7078638944    2.6074811750    3.4781427259
H        2.0842827674    3.0116606726    2.4295159063
H        1.6663334560    1.3122237771    2.7263191774
H       -0.8229340657    4.0720461915    1.9452355878
H       -0.8622525605    3.7169755618    0.2034201386
H        0.5889700181    4.4348950783    0.9305517153
H        0.9361846124    2.0432371446    0.4810376395
H       -4.2759732318   -2.1706025377    1.5901495644
H       -7.1027068847   -1.2687517598    5.0754419694
28   

C       -0.9242981796    0.2957631149    0.5687669641
C       -1.9643005178   -0.6367167806    0.6774075482
C       -1.7570471420    1.4679612913    2.5249650077
C       -3.8931746733    0.3776671001    3.5531632264
C       -2.7894559166    0.5299501249    2.6205540125
C       -0.8026224329    1.3604746308    1.4874097239
C       -2.8834675990   -0.4997280041    1.7098119857
C       -4.6110752842   -0.7411827637    3.1681267914
C       -5.8023309394   -1.3745190379    3.7238753191
C        1.2434416366    2.3144845509    2.5756823114
C       -0.2071454171    3.7656575565    1.1045746065
C        0.3328210768    2.3532170728    1.3453705769
N       -3.9849730150   -1.2852652227    2.0236562680
O       -6.3227331952   -2.3789757096    3.2558742072
O       -6.3065837527   -0.7606171378    4.8201214082
H       -0.2068650181    0.1888043078   -0.2366682626
H       -2.0524082773   -1.4517030076   -0.0298829496
H       -1.6990275408    2.2699956426    3.2502940987
H       -4.1200566963    1.0162631084    4.3983812861
H        0.6968254555    2.6040320615    3.4781783895
H        2.0859931167    3.0005027609    2.4440074710
H        1.6404525875    1.3040191415    2.7159386139
H       -0.8047042154    4.1081942093    1.9546793029
H       -0.8345246094    3.7787628762    0.2076181181
H        0.6204687523    4.4663502947    0.9564573532
H        0.9375649215    2.0760032496    0.4753413237
H       -4.3057215783   -2.1159644754    1.5298939904
H       -7.0822978269   -1.2878551054    5.0697343726
