29   

C        1.1737984652   -1.0437478093    0.1871713120
C        1.5359118568   -2.1914454391    0.8948164909
C        1.0123727906    0.1668161508    0.8650483991
C        1.7281450639   -2.1279502655    2.2791406122
C        1.1999700061    0.2265165331    2.2513327924
C        1.9414809273   -0.1054458641    6.4290099194
C        2.8856770163   -1.1619409603    6.1909937029
C        1.5456123990   -0.9251808910    2.9872827457
C        1.2015942392    0.0118984549    5.2870464126
C       -0.0428085619    0.8342774760    5.2069153462
C       -2.2483068970    1.4706723848    4.3055594646
C       -1.4021902628   -0.8423479170    3.9394480264
N        2.7132776630   -1.6383662330    4.9856194556
N        1.7321341875   -0.8968843487    4.3879068174
N       -1.1475103249    0.5180648580    4.4048416263
O       -0.1681579353    1.7764317741    5.9949470229
H        1.0273433853   -1.0912692208   -0.8863073853
H        1.6710748979   -3.1326090895    0.3731763828
H        0.7473597692    1.0634757070    0.3157493580
H        2.0128802378   -3.0249843445    2.8186513930
H        1.0893106924    1.1820928721    2.7500060813
H        1.7921645783    0.4341062808    7.3573244827
H        3.6072021192   -1.5313229939    6.9105777330
H       -2.8542488252    1.2625795940    3.4180046295
H       -1.8642418166    2.4917491209    4.2092841746
H       -2.8834996368    1.4111942353    5.1949710720
H       -2.4547156729   -1.0996504765    4.0952288500
H       -0.8153873185   -1.5753562896    4.5011146235
H       -1.1801717959   -0.9364375984    2.8722931582
29   

C        1.1639812404   -1.0078245071    0.1712672062
C        1.5425469887   -2.1529862182    0.8740752715
C        0.9909025371    0.1983545936    0.8535096389
C        1.7384987301   -2.0916231530    2.2580393955
C        1.1827903856    0.2561207607    2.2391272448
C        1.8416426939   -0.1680518741    6.4564806137
C        2.7891376408   -1.2227029061    6.2199880803
C        1.5438130079   -0.8935880371    2.9715873501
C        1.1649125257    0.0005662406    5.2839304068
C       -0.0354678080    0.8745839356    5.1241344206
C       -2.2579331228    1.4497811753    4.2111501250
C       -1.4207530381   -0.8932240165    4.0188956843
N        2.6758006009   -1.6443282902    4.9867837940
N        1.7287160745   -0.8712500517    4.3734629259
N       -1.1705004355    0.4950783185    4.3962623412
O       -0.0809562703    1.9386467130    5.7490483772
H        1.0139792731   -1.0535298244   -0.9017873432
H        1.6868931752   -3.0908094697    0.3489424936
H        0.7139211105    1.0938476095    0.3081851001
H        2.0343126338   -2.9879788316    2.7926099769
H        1.0657585297    1.2113853787    2.7366749498
H        1.6595959398    0.3468722504    7.3926219814
H        3.4730385708   -1.6274164504    6.9570988256
H       -2.8671921517    1.1699715952    3.3458458412
H       -1.8622193620    2.4531804074    4.0217623817
H       -2.8932259047    1.4787542975    5.1018670230
H       -2.4748406166   -1.1408436130    4.1795288289
H       -0.8382293763   -1.5873159710    4.6324355387
H       -1.1841982745   -1.0557151341    2.9629591124
29   

C        1.1454393348   -0.9761077504    0.1833818999
C        1.5224091555   -2.1164202123    0.8945809282
C        0.9904973225    0.2385454158    0.8541972788
C        1.7331764081   -2.0420001336    2.2758400032
C        1.1983812074    0.3098663540    2.2366718234
C        1.7945345457   -0.1589859202    6.4883451966
C        2.7295508906   -1.2269380931    6.2587797855
C        1.5558640497   -0.8350579090    2.9794748252
C        1.1735022961    0.0527941478    5.2934849039
C        0.0269390464    0.9823926843    5.0549213552
C       -2.2091843790    1.5285834589    4.1407117195
C       -1.4301034055   -0.8460138418    4.1711799447
N        2.6590742880   -1.6105035017    5.0094423842
N        1.7509629454   -0.8029417044    4.3808963546
N       -1.1522631668    0.5645664438    4.4265729427
O        0.0913661450    2.1411820182    5.4759504359
H        0.9830694796   -1.0318063709   -0.8873778030
H        1.6534535440   -3.0608736653    0.3779830839
H        0.7158568491    1.1308887121    0.3025125667
H        2.0261615439   -2.9359800449    2.8158024385
H        1.0991386177    1.2745792449    2.7194939538
H        1.5941902345    0.3433731241    7.4272630649
H        3.3766907862   -1.6651732325    7.0097825370
H       -2.7899728685    1.2059485078    3.2707542058
H       -1.7892497821    2.5115822987    3.9033286577
H       -2.8774657150    1.6249419533    5.0018870055
H       -2.4922347589   -1.0552742308    4.3331918303
H       -0.8722255011   -1.4944533271    4.8540492274
H       -1.1773406582   -1.1069132802    3.1388330880
29   

C        1.1773521691   -0.9942784931    0.1561688997
C        1.5429844334   -2.1489172322    0.8496019625
C        1.0553290495    0.2153021224    0.8422300114
C        1.7733618717   -2.0939877172    2.2287060393
C        1.2841489297    0.2676052957    2.2221335547
C        1.8058547391   -0.3615992484    6.4940798816
C        2.7304934369   -1.4334935165    6.2402751285
C        1.6279853036   -0.8922531883    2.9491126811
C        1.2447127771   -0.0707515946    5.2871170736
C        0.1549721515    0.9173344362    5.0037230148
C       -2.0969061170    1.4841219838    4.1209641856
C       -1.3954609676   -0.9088407203    4.3140744387
N        2.7070707127   -1.7418749346    4.9681323465
N        1.8384089579   -0.8837426295    4.3497872294
N       -1.0736398854    0.5060135125    4.4754410314
O        0.3357994361    2.1149169581    5.2399922055
H        0.9987983172   -1.0347902737   -0.9126721717
H        1.6494760982   -3.0897005964    0.3208715295
H        0.7906639918    1.1191502033    0.3045609204
H        2.0559358189   -3.0001407591    2.7535895951
H        1.2142880880    1.2314859149    2.7116499208
H        1.5832755140    0.0972066972    7.4498662067
H        3.3393727726   -1.9261031146    6.9895699469
H       -2.6219244392    1.1652848849    3.2149424939
H       -1.6587517705    2.4649192671    3.9101721047
H       -2.8193037111    1.5880577575    4.9362310043
H       -2.4677683953   -1.0714409725    4.4617573623
H       -0.8750598678   -1.5242432735    5.0548595077
H       -1.1250615114   -1.2500908628    3.3098429048
29   

C        1.2177388645   -1.0011176474    0.1140948018
C        1.5974242181   -2.1461446544    0.8153674381
C        1.0793046283    0.2107776162    0.7924964054
C        1.8245839134   -2.0794183101    2.1944730484
C        1.3056505830    0.2749937834    2.1723270389
C        1.7024406949   -0.4469934800    6.4753093333
C        2.6633402531   -1.4867554622    6.2237942017
C        1.6627190576   -0.8753070038    2.9084394319
C        1.2135677790   -0.1039027503    5.2510641705
C        0.1515225683    0.9037023445    4.9194406818
C       -2.1453027425    1.4453094696    4.1289318151
C       -1.4526433767   -0.9386733036    4.4723943739
N        2.7232209441   -1.7279322965    4.9383513373
N        1.8712832429   -0.8589279695    4.3103314219
N       -1.1158578052    0.4813457745    4.5072345074
O        0.4045305853    2.1100874189    4.9669861610
H        1.0413691592   -1.0505267841   -0.9547028621
H        1.7172146999   -3.0887666362    0.2928548640
H        0.8045164783    1.1081302424    0.2490848875
H        2.1176547318   -2.9794585363    2.7239466305
H        1.2265167767    1.2431555226    2.6510649734
H        1.4210880304   -0.0359043855    7.4371095380
H        3.2392127187   -2.0045666186    6.9821316567
H       -2.2405343403    1.4803021443    3.0391745953
H       -1.9135928100    2.4523819294    4.4893454457
H       -3.1088369829    1.1612817734    4.5632292322
H       -2.5330886223   -1.0797649579    4.5749661365
H       -0.9785378980   -1.4790553207    5.2979925950
H       -1.1322477473   -1.3804945831    3.5233435034
29   

C        1.3473678693   -1.0828282379    0.0207573335
C        1.7223799422   -2.2035488905    0.7620862668
C        1.1815821660    0.1452676220    0.6622799362
C        1.9182891813   -2.0958190778    2.1434517261
C        1.3766026255    0.2500100038    2.0444607423
C        1.6085271158   -0.4672305184    6.3885371910
C        2.6124493440   -1.4722380150    6.1708094188
C        1.7299601756   -0.8738930584    2.8211885671
C        1.1899171973   -0.1014393362    5.1446022832
C        0.1405804474    0.9081074520    4.7721946150
C       -2.2073633251    1.4634959597    4.1826879444
C       -1.5483204675   -0.9059500213    4.6865681142
N        2.7575814547   -1.6752496789    4.8860214858
N        1.9169162870   -0.8176668693    4.2259872598
N       -1.1767349689    0.4991927529    4.5546533970
O        0.4462165882    2.0917545157    4.6070035900
H        1.1962147822   -1.1631640723   -1.0499887637
H        1.8634967943   -3.1589279810    0.2689956500
H        0.9112536838    1.0249483253    0.0886000932
H        2.2091918079   -2.9784138947    2.7024537802
H        1.2816926900    1.2315136324    2.4889282170
H        1.2624709135   -0.0862799527    7.3414877679
H        3.1579704917   -1.9928356235    6.9494033920
H       -2.3400405077    1.4695531527    3.0963593388
H       -1.9469921514    2.4748395492    4.5109126235
H       -3.1592586360    1.2063342361    4.6575604679
H       -2.6219803350   -1.0048912443    4.8739601645
H       -1.0305760793   -1.3761479825    5.5284097820
H       -1.3029711421   -1.4476507908    3.7672498115
29   

C        1.5948085861   -1.1314933948   -0.1230959551
C        1.8735524423   -2.2567453852    0.6527315648
C        1.4355363799    0.1094284440    0.4945047420
C        1.9794996503   -2.1395117409    2.0432509215
C        1.5419596943    0.2229308546    1.8856800445
C        1.4482483910   -0.5482030912    6.2533924702
C        2.4848386940   -1.5268124436    6.0811849928
C        1.7957307571   -0.9027477805    2.6957442168
C        1.1108955451   -0.1518180714    4.9932783361
C        0.0592284850    0.8472490384    4.6035484399
C       -2.3206967512    1.4849975373    4.3322647881
C       -1.7126015892   -0.8470069861    5.0212705526
N        2.7197867554   -1.6928991454    4.8052974900
N        1.9070760131   -0.8366558515    4.1082084460
N       -1.2934585095    0.5069622579    4.6734305065
O        0.3782588206    1.9764862922    4.2209970149
H        1.5143893328   -1.2180887592   -1.2009360616
H        2.0109058066   -3.2225376672    0.1793968521
H        1.2415667561    0.9929164163   -0.1036719398
H        2.1990853166   -3.0253554575    2.6288502687
H        1.4663496509    1.2131020293    2.3101506431
H        1.0289310498   -0.2022119287    7.1900480372
H        2.9879127121   -2.0563278396    6.8820239335
H       -2.5416277067    1.4425907072    3.2613076661
H       -2.0001843354    2.4996910203    4.5901683635
H       -3.2378904027    1.2827938431    4.8943837779
H       -1.8834181671   -0.9271219176    6.0991768256
H       -0.9664448481   -1.5893630344    4.7208960240
H       -2.6386483663   -1.1013048220    4.4960111045
29   

C        1.7710600964   -1.1430319313   -0.2347683782
C        1.9396220682   -2.2804914696    0.5552502367
C        1.6576821121    0.1081791996    0.3729632813
C        1.9791403283   -2.1641568890    1.9492676189
C        1.7010178808    0.2203525420    1.7678306373
C        1.3234729274   -0.6494588118    6.1307724875
C        2.4134163107   -1.5713043695    5.9822880867
C        1.8379651279   -0.9158511136    2.5891433798
C        1.0225179113   -0.2308855503    4.8669839108
C       -0.0455616581    0.7431753639    4.4728855156
C       -2.4143040630    1.4717880764    4.4737285490
C       -1.8022864849   -0.8111178505    5.3052526813
N        2.7158616803   -1.6863346953    4.7158680337
N        1.8956230142   -0.8500845275    4.0033158437
N       -1.3848978859    0.4828904152    4.7757214641
O        0.2399787320    1.8000665705    3.9018810902
H        1.7417745367   -1.2286782583   -1.3152411211
H        2.0440435705   -3.2545094752    0.0905067604
H        1.5499895020    0.9998021472   -0.2346796048
H        2.1165587099   -3.0571721403    2.5487836445
H        1.6733089281    1.2136312671    2.1920910635
H        0.8505365981   -0.3484491943    7.0573144376
H        2.9046520332   -2.0992483311    6.7914655043
H       -2.7677910951    1.3480806050    3.4454952718
H       -2.0296240491    2.4893038004    4.5989840624
H       -3.2607715003    1.3595206371    5.1585724162
H       -1.8027698979   -0.7932164430    6.3993931952
H       -1.1446785749   -1.6147145649    4.9584236147
H       -2.8104433186   -1.0547846064    4.9551962128
29   

C        1.8731365887   -1.2133553233   -0.2512377307
C        3.0025219304   -1.5391375301    0.5010790123
C        0.6760261309   -0.9051473164    0.3969931957
C        2.9329842604   -1.5526209879    1.8988077524
C        0.6108548364   -0.9133160216    1.7954386271
C        1.1145701784   -1.0142012150    6.1068991730
C        2.1168546074   -2.0364827943    5.9716027846
C        1.7430856633   -1.2256003508    2.5779363891
C        0.9058705891   -0.5408580848    4.8435311090
C        0.1120838850    0.6510356256    4.4087066115
C       -1.9427112641    2.0343474377    4.4716675642
C       -1.9304479471   -0.2417893151    5.5190225737
N        2.4656112287   -2.1453333113    4.7157373705
N        1.7121578722   -1.2573757605    3.9944477526
N       -1.2155259594    0.8162901830    4.8137610028
O        0.6328949512    1.5145926555    3.7006846186
H        1.9250343649   -1.2017638172   -1.3341186995
H        3.9357192933   -1.7797296155    0.0044533351
H       -0.2062744804   -0.6602350935   -0.1834040732
H        3.8187124828   -1.8058764959    2.4707883080
H       -0.3401971271   -0.6906616031    2.2603155513
H        0.6846191145   -0.6508092542    7.0317579061
H        2.5391263741   -2.6126624223    6.7867813509
H       -2.4248124472    1.9265691042    3.4952741080
H       -1.2705627178    2.8984048184    4.4437886860
H       -2.7068938024    2.2444505254    5.2267003313
H       -1.8032478436   -0.1327219738    6.6004950948
H       -1.5776793538   -1.2315518246    5.2115535817
H       -2.9987792429   -0.1981020351    5.2841504405
29   

C        1.9625778935   -1.2952202812   -0.2717922903
C        3.0938143604   -1.5121752275    0.5166038055
C        0.7251113482   -1.0803351872    0.3380665113
C        2.9852922253   -1.5110229497    1.9118682464
C        0.6212950528   -1.0724819782    1.7343234248
C        0.9848956400   -1.0989083464    6.0518406759
C        2.0298550436   -2.0806811746    5.9480299276
C        1.7529997469   -1.2752118900    2.5510857087
C        0.8075588372   -0.6158368565    4.7854583254
C        0.0318693726    0.5782836466    4.3326258500
C       -1.9026031057    2.1151936751    4.4971583118
C       -1.9508788896   -0.0781164030    5.6998114795
N        2.4397567640   -2.1547260364    4.7091427512
N        1.6818332730   -1.2894420980    3.9657088271
N       -1.2271043293    0.8751584789    4.8662175020
O        0.4936794417    1.3300982378    3.4714707121
H        2.0446851675   -1.2947328826   -1.3528187065
H        4.0581046846   -1.6790566873    0.0501187454
H       -0.1575807577   -0.9186743246   -0.2700535258
H        3.8710886764   -1.6796239820    2.5140605738
H       -0.3537625303   -0.9177502755    2.1777125207
H        0.5196644312   -0.7581388023    6.9677662240
H        2.4391881684   -2.6509620797    6.7738886853
H       -2.4620346619    1.9801611382    3.5664486440
H       -1.1811756444    2.9285104722    4.3653919638
H       -2.5936811310    2.4216841811    5.2887945128
H       -1.7256845152    0.0904796164    6.7573484484
H       -1.6975741975   -1.1091871050    5.4329617197
H       -3.0297179999    0.0315898268    5.5496507481
29   

C        2.1890474127   -1.5700469583   -0.1653550426
C        3.2987759038   -1.6410133180    0.6786682678
C        0.9092872531   -1.4550681018    0.3818679707
C        3.1261845759   -1.5939095391    2.0666081794
C        0.7412419125   -1.4006639235    1.7709608014
C        0.8900677749   -1.2537643860    6.0908242805
C        1.9789251948   -2.1904044900    6.0529357651
C        1.8486394417   -1.4548083276    2.6412542620
C        0.7604808170   -0.7808675991    4.8125864785
C        0.0067297344    0.4053014798    4.3073603893
C       -1.7969582831    2.0911587334    4.4691391882
C       -1.9124013034    0.0252657686    5.8676535810
N        2.4656987568   -2.2461549366    4.8425273306
N        1.7132889139   -1.4207112316    4.0503966737
N       -1.1764995807    0.8466719368    4.9137433401
O        0.3959766508    1.0184575997    3.3103786921
H        2.3207073706   -1.6046958080   -1.2408743554
H        4.2953017944   -1.7298560674    0.2611601812
H        0.0439955676   -1.4056340013   -0.2690873498
H        3.9940951862   -1.6498556148    2.7140591349
H       -0.2607737002   -1.3198525116    2.1728994376
H        0.3783981007   -0.9269245038    6.9859930750
H        2.3643986097   -2.7393305051    6.9043541150
H       -2.3983316247    1.9161480012    3.5717535091
H       -1.0352285097    2.8462153971    4.2475948375
H       -2.4390828953    2.4999100191    5.2557904972
H       -1.6017401208    0.2553867301    6.8913680437
H       -1.7635805792   -1.0406327040    5.6674817006
H       -2.9870417897    0.2147558921    5.7794097373
29   

C        2.7420118823   -0.9867771690   -0.0930224226
C        2.7254377655    0.0359212161    0.8584205918
C        2.2625914087   -2.2540393882    0.2441860588
C        2.2196677369   -0.2065564377    2.1415885413
C        1.7648360552   -2.4939070518    1.5298791958
C        0.5217641283   -1.5770177357    5.8752412277
C        1.2578277481   -2.7951290956    5.6852728608
C        1.7141935854   -1.4726267070    2.4967085275
C        0.5018802141   -0.9512793892    4.6548423656
C       -0.3477061885    0.1682939285    4.1472933270
C       -1.9737583453    2.0110476947    4.4251664376
C       -0.7311183610    1.1696015833    6.4148540161
N        1.6251443828   -2.8929999479    4.4376722643
N        1.2167671990   -1.7581934030    3.7907118083
N       -1.0411569202    1.0430143035    4.9967788310
O       -0.4298266536    0.3979882272    2.9376911475
H        3.1260460606   -0.7981441153   -1.0890862943
H        3.1013422726    1.0200229590    0.6034278278
H        2.2728445277   -3.0527854226   -0.4887083800
H        2.2175971228    0.5960258227    2.8687083964
H        1.3964309198   -3.4810249003    1.7854751510
H        0.0056368814   -1.3155856416    6.7878146673
H        1.4447588340   -3.5411119598    6.4490793041
H       -2.6847106713    2.3528950098    5.1840463496
H       -2.5559400266    1.5551968296    3.6172570250
H       -1.4297762988    2.8748116084    4.0304927326
H        0.3328263909    0.9903942459    6.5998112501
H       -1.3372685316    0.4745293540    7.0038865198
H       -0.9408343921    2.1873499795    6.7595396034
29   

C        2.7496576720   -0.9420417230   -0.0462679528
C        2.5591394779    0.0893479996    0.8758697504
C        2.4208223356   -2.2528355380    0.3038519104
C        2.0308140194   -0.1890491410    2.1424028896
C        1.8999992553   -2.5281819473    1.5732401461
C        0.3565479902   -1.6775394052    5.8404173229
C        1.1440699064   -2.8686705020    5.6810473919
C        1.6772491399   -1.5026319413    2.5115282506
C        0.3790611164   -1.0498206716    4.6238956977
C       -0.4803542886    0.0571704468    4.1083579227
C       -1.9463160606    2.0252064656    4.4215301784
C       -0.5030324940    1.2515674460    6.3073369205
N        1.5794981023   -2.9437569067    4.4522940165
N        1.1583423117   -1.8218538512    3.7898414179
N       -0.9987271704    1.0489811125    4.9510547282
O       -0.7360489795    0.1454218243    2.9048340872
H        3.1517611896   -0.7263645964   -1.0296679706
H        2.8185181631    1.1079140999    0.6109708865
H        2.5655546486   -3.0585851598   -0.4068443310
H        1.9000016606    0.6252310415    2.8437874573
H        1.6478316459   -3.5494292757    1.8360263813
H       -0.2178858873   -1.4221265717    6.7206089003
H        1.3199071418   -3.6122122588    6.4498455083
H       -2.5405862846    2.4592405821    5.2318888860
H       -2.6452936137    1.5482164862    3.7262967321
H       -1.4141617079    2.8266014573    3.8998280920
H        0.5470725450    0.9541269694    6.3919834435
H       -1.1057863826    0.6856758993    7.0242187924
H       -0.5517638245    2.3125064823    6.5729960884
29   

C        2.7491970686   -0.8179943527    0.0333206861
C        2.4327784251    0.2010328847    0.9338045512
C        2.5432597509   -2.1500602307    0.3959891381
C        1.9018738714   -0.1115241179    2.1911043817
C        2.0192944720   -2.4593951591    1.6562784282
C        0.2473068900   -1.7243926492    5.8556299134
C        1.0924917897   -2.8790645965    5.7176705096
C        1.6719846356   -1.4493194039    2.5738118709
C        0.3014002958   -1.0834634010    4.6494969952
C       -0.5526318550    0.0291167103    4.1342942633
C       -1.8486637240    2.1144411833    4.4559358057
C       -0.2841814980    1.3338428178    6.2454014204
N        1.5938247516   -2.9132856085    4.5110704709
N        1.1515583578   -1.8024286367    3.8430418466
N       -0.9114130562    1.1095451424    4.9478130350
O       -0.9594893640    0.0132212175    2.9705622574
H        3.1540903574   -0.5761904278   -0.9428721252
H        2.5978011768    1.2367103062    0.6595197836
H        2.7860008926   -2.9465817861   -0.2982320310
H        1.6802813185    0.6992544693    2.8728666788
H        1.8626931931   -3.4977135767    1.9265879076
H       -0.3714639701   -1.4863361784    6.7111646098
H        1.2646041672   -3.6257479421    6.4842589516
H       -2.3692576010    2.5904936847    5.2929357291
H       -2.6126966268    1.6570828801    3.8184608358
H       -1.3175525090    2.8804620038    3.8827454438
H        0.7422510413    0.9534400561    6.2597899373
H       -0.8630094998    0.8508262218    7.0386053883
H       -0.2270245081    2.4064177218    6.4570465203
29   

C        2.7665809353   -0.7653478540    0.1282795272
C        2.3336977460    0.2277670175    1.0084137307
C        2.6853314634   -2.1065237791    0.5054968758
C        1.8114659352   -0.1201544522    2.2598927168
C        2.1687188542   -2.4512277075    1.7596697356
C        0.2125662527   -1.8669732260    5.8991230006
C        1.1247342868   -2.9718116958    5.7757902149
C        1.7060923409   -1.4699981385    2.6580632302
C        0.2767980633   -1.2081992148    4.7051343263
C       -0.5889520402   -0.0975406828    4.1991355012
C       -1.7205786716    2.0869697004    4.5040075333
C       -0.0285451411    1.3067659317    6.1780138995
N        1.6769705635   -2.9543682863    4.5902828227
N        1.1959826240   -1.8599714072    3.9214251208
N       -0.7894875583    1.0590883819    4.9583087074
O       -1.1541739580   -0.2030682764    3.1093466093
H        3.1659722267   -0.4962107987   -0.8430646393
H        2.4032266828    1.2714125352    0.7233448228
H        3.0197153849   -2.8832901305   -0.1728841066
H        1.5070499496    0.6787476149    2.9226890369
H        2.1098209947   -3.4973110465    2.0390529583
H       -0.4408615866   -1.6604284431    6.7373618681
H        1.3096535517   -3.7205494050    6.5373755733
H       -2.1661460942    2.5997726270    5.3623081576
H       -2.5426416528    1.6485193314    3.9286539659
H       -1.2008935261    2.8198771132    3.8794212830
H        0.9707678820    0.8635148445    6.1189612409
H       -0.5548269658    0.8971015763    7.0456878760
H        0.1093491169    2.3826574121    6.3258058804
29   

C        2.6904904110   -0.6341019075    0.1097770693
C        1.3187718090   -0.4488608696    0.2881219733
C        3.4369959498   -1.2612586815    1.1076593949
C        0.6971436597   -0.8791606916    1.4664859715
C        2.8121608366   -1.6869435556    2.2852665650
C       -0.0710075574   -1.9974569582    5.7200145091
C        0.7399444271   -3.1610606374    5.5002763742
C        1.4337645248   -1.4858795272    2.5025973134
C        0.0332006179   -1.2568449377    4.5782598119
C       -0.6284140867    0.0574184245    4.2958157052
C       -1.0906073497    2.4177561136    4.8943252466
C        0.6622383353    1.1277844849    6.1353278297
N        1.2854987893   -3.0930518210    4.3144125376
N        0.8466647000   -1.9444739466    3.7077947572
N       -0.3786954527    1.1631459372    5.1133925006
O       -1.4220966647    0.1793742016    3.3577346148
H        3.1704937880   -0.3044548481   -0.8048520931
H        0.7271608211    0.0165454700   -0.4923987686
H        4.5003204741   -1.4229432349    0.9705406081
H       -0.3758726898   -0.7728085260    1.5350996632
H        3.4054435633   -2.1778424156    3.0486881179
H       -0.6483138901   -1.7676197863    6.6069468506
H        0.8872036906   -3.9674679760    6.2093796472
H       -1.1673602387    2.9787385481    5.8310905110
H       -2.1112622509    2.2338882487    4.5429830050
H       -0.5632512006    3.0278820994    4.1546256891
H        1.4736440149    0.4484790709    5.8548757850
H        0.2434050597    0.8113057957    7.0954689971
H        1.1083335484    2.1203472697    6.2541062252
29   

C        2.6615061858   -0.4987741177    0.2657599452
C        1.3000556768   -0.2753650709    0.4736187354
C        3.3928512845   -1.2224548306    1.2076815220
C        0.6739653258   -0.7632288659    1.6266868994
C        2.7635935478   -1.7089011833    2.3591718328
C       -0.2096681718   -2.1292126850    5.7537303534
C        0.6672987291   -3.2475825586    5.5486953880
C        1.3953505929   -1.4738303664    2.6077276876
C       -0.0835061521   -1.3596964462    4.6353602116
C       -0.7724555528   -0.0572251584    4.3434924891
C       -1.0515936435    2.3744266564    4.7351569150
C        0.8004818109    1.1206423375    5.8672247076
N        1.2690200557   -3.1236242653    4.3940401659
N        0.8049128516   -1.9821670550    3.7929969639
N       -0.3626763972    1.1131876911    4.9858213680
O       -1.7060948214   -0.0077137179    3.5378058060
H        3.1451668379   -0.1223771531   -0.6287252935
H        0.7195756819    0.2663894101   -0.2649879034
H        4.4485586043   -1.4109834591    1.0476689626
H       -0.3918537981   -0.6126269331    1.7142142928
H        3.3486290381   -2.2712345697    3.0784625894
H       -0.8370861965   -1.9438100190    6.6167669616
H        0.8183276363   -4.0633555180    6.2462033774
H       -0.9871411525    3.0227110995    5.6147462152
H       -2.1147666639    2.2092230105    4.5321207447
H       -0.6010411857    2.8872961751    3.8798618889
H        1.5343413496    0.3642569562    5.5715125194
H        0.4947939471    0.9377194289    6.9019164649
H        1.3076690723    2.0891612738    5.8137457514
29   

C        2.5649624876   -0.2870961911    0.4779893484
C        1.2080057317   -0.0651032851    0.7158817905
C        3.2970410076   -1.0886786118    1.3541872494
C        0.5871120602   -0.6317856352    1.8351517621
C        2.6736249051   -1.6552441501    2.4715648887
C       -0.3609869846   -2.2752632648    5.8150113263
C        0.5590033005   -3.3561553627    5.5901296326
C        1.3111638201   -1.4241492442    2.7513050054
C       -0.2064912526   -1.4432217280    4.7471847257
C       -0.9112521340   -0.1459593094    4.4653310482
C       -1.0007247470    2.3324156816    4.5857657543
C        0.9521720149    1.0815889746    5.5482685484
N        1.2044237823   -3.1559669250    4.4692807468
N        0.7277699842   -1.9998659459    3.9088703224
N       -0.3346191670    1.0629927774    4.8598704037
O       -1.9747776908   -0.1378004425    3.8403775780
H        3.0452044391    0.1521389011   -0.3893268022
H        0.6281551742    0.5392539456    0.0270036997
H        4.3493663871   -1.2745076102    1.1701211684
H       -0.4758493452   -0.4693009800    1.9516601355
H        3.2597400867   -2.2750154403    3.1412137699
H       -1.0317362116   -2.1537087564    6.6566257429
H        0.7067624024   -4.2019159880    6.2517027694
H       -0.8324093822    3.0369273562    5.4061715339
H       -2.0835199536    2.2028751889    4.4899233283
H       -0.6141587636    2.7656615638    3.6580716457
H        1.0362703647    0.2507479640    6.2556918180
H        1.0687874259    2.0055473069    6.1230105867
H        1.7683611725    1.0170362315    4.8213287057
29   

C        2.5195856741   -0.1958250673    0.6064843141
C        1.1574620315   -0.0135028425    0.8502605808
C        3.2744948684   -0.9948432684    1.4659621697
C        0.5539006599   -0.6169274828    1.9597044515
C        2.6688405752   -1.5982460308    2.5737033279
C       -0.4553527513   -2.4056336334    5.8291922542
C        0.5166149213   -3.4436416626    5.6159509896
C        1.3023351765   -1.4062040547    2.8594286304
C       -0.2625598471   -1.5171608891    4.8148237542
C       -0.9730050314   -0.2187900299    4.5643216072
C       -0.9752334949    2.2685893370    4.5005699413
C        1.0298250519    1.0241930594    5.3459239808
N        1.2242569056   -3.1702056002    4.5489133758
N        0.7359187914   -2.0097754997    4.0101018349
N       -0.3191617534    0.9963552793    4.7886132406
O       -2.1226996172   -0.2166835826    4.1173351724
H        2.9868575787    0.2725826458   -0.2526589131
H        0.5615168671    0.5896213858    0.1741394477
H        4.3309624658   -1.1495054276    1.2766002661
H       -0.5129476273   -0.4820591787    2.0877664349
H        3.2709924658   -2.2149349334    3.2320414391
H       -1.1768930957   -2.3414318274    6.6344690263
H        0.6552170100   -4.3120756250    6.2495482806
H       -0.7831596267    2.9854874781    5.3048379964
H       -2.0611188752    2.1579066003    4.4203483498
H       -0.5970188975    2.6781177058    3.5587138629
H        1.1705225326    0.2274821390    6.0834010298
H        1.2140782138    1.9730360793    5.8592691837
H        1.7711834443    0.9101107996    4.5484665563
29   

C        2.4917605732   -0.1853970182    0.6537647077
C        1.1289356881   -0.0171039130    0.9048592883
C        3.2608140321   -0.9736803671    1.5110108527
C        0.5387557858   -0.6240152167    2.0195784522
C        2.6683888261   -1.5812435114    2.6236172305
C       -0.5426443714   -2.4975074840    5.7931799152
C        0.4584376727   -3.5110514176    5.5960546687
C        1.3018964940   -1.4029745936    2.9155844570
C       -0.3044776188   -1.5586529115    4.8350289968
C       -1.0105165632   -0.2511427580    4.6457890308
C       -0.9971424691    2.2271591756    4.4742338699
C        1.0716709833    1.0113981521    5.1795470409
N        1.2253948583   -3.1807410709    4.5877580291
N        0.7459152466   -2.0083626394    4.0691247716
N       -0.3217395623    0.9626143638    4.7465518260
O       -2.2195759183   -0.2362045782    4.3993686219
H        2.9490114999    0.2858934828   -0.2092247627
H        0.5230468845    0.5783621813    0.2307720748
H        4.3179014897   -1.1168207173    1.3159524104
H       -0.5281036560   -0.4986839451    2.1598066942
H        3.2796614636   -2.1901736637    3.2808973076
H       -1.3066937207   -2.4738504798    6.5608007020
H        0.5748945562   -4.4025654233    6.2014327623
H       -1.3368435011    2.6834540644    5.4089616484
H       -1.8601128625    2.0874896265    3.8153341524
H       -0.3134980698    2.9152064210    3.9668864454
H        1.3118893658    0.1788035749    5.8484153070
H        1.2615081730    1.9334270216    5.7380413313
H        1.7418246440    0.9821450329    4.3146281491
29   

C        0.8285947281   -1.7965533803    0.3697113047
C        0.0697891208   -2.2706504715    1.4415536390
C        1.8927764929   -0.9250812984    0.6069286145
C        0.3657717373   -1.8627628033    2.7475318411
C        2.1891168043   -0.5216127955    1.9135361057
C        1.6508277902   -0.1068235523    6.4780566037
C        2.9988993236   -0.0064761428    5.9880040112
C        1.4212317630   -0.9636254890    3.0081653017
C        0.8812775643   -0.3899416200    5.3891353612
C       -0.6118978269   -0.4657965447    5.3659277588
C       -2.8276943088    0.0782695852    4.4023262704
C       -0.7956631440    1.2890764368    3.5954813939
N        3.0132191585   -0.2201390661    4.6968205249
N        1.7330983056   -0.5135367663    4.3132439591
N       -1.3797433991    0.2516435428    4.4409107347
O       -1.1962928435   -1.1337085402    6.2242191178
H        0.5985718593   -2.1114007829   -0.6421955452
H       -0.7461389494   -2.9624858995    1.2635618500
H        2.4918143216   -0.5605043017   -0.2202810672
H       -0.2241080910   -2.2741529132    3.5577493080
H        3.0192609911    0.1556135417    2.0833143020
H        1.3115551061    0.0530317970    7.4946207490
H        3.8678860831    0.2336421670    6.5897108425
H       -3.3101600353    0.7602041107    5.1092143787
H       -3.1058949233   -0.9507253348    4.6528502564
H       -3.2058686507    0.2798048517    3.3950487014
H       -0.5722139737    0.8930678726    2.6000092249
H        0.1200279644    1.6965106132    4.0353442822
H       -1.4944548294    2.1248781705    3.4892668674
29   

C        0.8403556070   -1.7953382799    0.3554906951
C        0.0542601732   -2.2390947048    1.4210640660
C        1.9131771999   -0.9355371499    0.5972067100
C        0.3323051018   -1.8125309724    2.7252376130
C        2.1920737610   -0.5145911504    1.9020078397
C        1.6007787083   -0.1432498113    6.4680373441
C        2.9573602906   -0.0758720319    5.9978631371
C        1.3975542558   -0.9268763592    2.9888011815
C        0.8285750224   -0.3507885334    5.3626327906
C       -0.6643652449   -0.3104450103    5.3607007548
C       -2.8701292865    0.2229807098    4.3842614495
C       -0.8168302480    1.2629996908    3.4198825063
N        2.9788924325   -0.2352532130    4.6995899769
N        1.6935603540   -0.4650112989    4.2922380453
N       -1.4145243898    0.3164137355    4.3575071994
O       -1.2704062996   -0.7547579636    6.3405667141
H        0.6245237320   -2.1241688468   -0.6551146866
H       -0.7691566345   -2.9209209742    1.2391362028
H        2.5326959097   -0.5940300387   -0.2247950546
H       -0.2794525837   -2.1936261633    3.5341283325
H        3.0296088184    0.1521911104    2.0771213396
H        1.2554173567    0.0018873791    7.4850484530
H        3.8270515440    0.1076033957    6.6182017629
H       -3.2842137753    0.9505092475    5.0892795470
H       -3.1865971263   -0.7824511804    4.6812944523
H       -3.2824771277    0.4146896900    3.3885423643
H       -0.6564014377    0.7927379206    2.4449561736
H        0.1338645657    1.6539208865    3.7952248096
H       -1.4787586958    2.1241741362    3.2840581727
29   

C        0.8726205692   -1.7710407294    0.3557224007
C        0.0923762978   -2.2267275972    1.4209107175
C        1.9336758562   -0.8966971238    0.5981156966
C        0.3648868908   -1.7978673403    2.7256681098
C        2.2073160478   -0.4740198759    1.9034002760
C        1.6356216452   -0.2560151454    6.4841670928
C        2.9905023332   -0.1842094039    6.0114489139
C        1.4187005943   -0.8992299967    2.9891091418
C        0.8486586548   -0.3790486702    5.3747629033
C       -0.6385502552   -0.2458099821    5.4150934510
C       -2.8663124856    0.2413288599    4.4763739257
C       -0.8441104317    1.1833563557    3.3703986169
N        3.0021869142   -0.2591246081    4.7061106253
N        1.7112774910   -0.4421551600    4.2940416128
N       -1.4114328862    0.2891692298    4.3757828763
O       -1.2151247553   -0.4913273187    6.4788148774
H        0.6614709545   -2.1015577440   -0.6553352235
H       -0.7220708856   -2.9189044729    1.2378164669
H        2.5485350561   -0.5458545482   -0.2234852322
H       -0.2419896918   -2.1827676863    3.5365877769
H        3.0364377177    0.2026450386    2.0808866228
H        1.2999092441   -0.1509639077    7.5095639652
H        3.8661661490   -0.0535537571    6.6367362756
H       -3.2268727231    1.0287275640    5.1457573289
H       -3.1922048131   -0.7308024532    4.8612380628
H       -3.3217223266    0.3735729372    3.4897974638
H       -0.7366275896    0.6705798992    2.4099441548
H        0.1268353454    1.5772761923    3.6853469111
H       -1.4998921471    2.0479732719    3.2266290508
29   

C        0.9088702716   -1.7442750102    0.3592054100
C        0.1299042725   -2.2120181155    1.4203933470
C        1.9546559671   -0.8528809996    0.6067879364
C        0.3887181598   -1.7784343352    2.7265122138
C        2.2147044931   -0.4257412483    1.9133770695
C        1.6306093097   -0.3522689500    6.4976229058
C        2.9881991633   -0.2890692786    6.0329204068
C        1.4270083182   -0.8636032190    2.9942629210
C        0.8396798440   -0.3864030081    5.3829921666
C       -0.6360253400   -0.1487654662    5.4518281987
C       -2.8833157998    0.2753377752    4.5415579676
C       -0.8961310995    1.1201998066    3.3142007308
N        3.0022401224   -0.2829179186    4.7260955626
N        1.7089684218   -0.4093213094    4.3016038114
N       -1.4326200036    0.2812965472    4.3819818063
O       -1.1724074236   -0.1844767379    6.5623258979
H        0.7087822320   -2.0785505326   -0.6528741281
H       -0.6727097617   -2.9167091819    1.2329225885
H        2.5686960483   -0.4930186600   -0.2115394161
H       -0.2164709395   -2.1685066720    3.5364154634
H        3.0330306212    0.2623897545    2.0969545494
H        1.2980855687   -0.2809223500    7.5271146206
H        3.8645993866   -0.2170957516    6.6666246167
H       -3.2027867348    1.1299326846    5.1464957476
H       -3.2101107306   -0.6484939317    5.0305940339
H       -3.3752591812    0.3235020478    3.5649069558
H       -0.8295567395    0.5627206070    2.3754124944
H        0.0878365275    1.5211760201    3.5745681962
H       -1.5504266786    1.9828559534    3.1527557021
