29

C     -0.08441    2.53828   -1.15920
C     -1.17156    2.63270   -0.28103
C      0.51603    1.30120   -1.40047
C     -1.66517    1.49988    0.37390
C      0.01343    0.17407   -0.75069
C     -1.06263    0.26855    0.13926
C      0.24292   -2.15633   -0.21688
C     -0.56342   -1.85666    1.03461
C      0.52863   -0.71159    4.61180
C      0.36943   -1.43732    2.18379
C     -0.40552   -1.13382    3.47338
N      0.53552   -1.13126   -0.99845
N      0.65239   -3.39710   -0.46662
O     -1.55653   -0.87872    0.72320
H      0.29481    3.42491   -1.65654
H     -1.63623    3.59683   -0.09930
H      1.35738    1.21663   -2.08427
H     -2.50775    1.55650    1.05590
H     -1.13038   -2.74840    1.31422
H      1.25430   -1.49743    4.84736
H     -0.04178   -0.50198    5.52082
H      1.08636    0.19458    4.35220
H      1.08646   -2.24954    2.35811
H      0.95258   -0.56046    1.87970
H     -1.13593   -0.34293    3.27700
H     -0.97848   -2.02130    3.76925
H      1.09973   -1.26124   -1.83534
H      1.22504   -3.64291   -1.26868
H      0.39280   -4.15242    0.15778
