25

C      1.96654    0.43994   -1.34745
C      2.52129    1.71996   -1.35884
C      0.82380    2.54173    0.21951
C     -0.88951    0.67849    0.89488
C      0.25101    1.25563    0.23727
C      0.84444    0.21916   -0.54290
C      1.94038    2.73114   -0.57718
C     -0.95247   -0.64375    0.51415
C     -1.89150   -1.74137    0.92126
C      0.22093   -2.17366   -1.09227
C     -0.57408   -3.27505   -0.39377
N      0.10639   -0.93638   -0.33361
N     -1.92594   -2.78185   -0.11694
F      2.51525    3.96972   -0.61496
H      2.40268   -0.35155   -1.95024
H      3.39359    1.95277   -1.96115
H      0.41784    3.36715    0.79647
H     -1.57413    1.17503    1.57071
H     -1.56438   -2.14479    1.89830
H     -2.89600   -1.33025    1.05573
H      1.27609   -2.45761   -1.16291
H     -0.16768   -2.02195   -2.10713
H     -0.63635   -4.14177   -1.05794
H     -0.03991   -3.58522    0.52293
H     -2.51309   -3.54936    0.20035
