42

C      5.50984   -0.15571    5.40136
C      5.31319    0.61198    4.24471
C      3.12533   -0.35774    5.66910
C      4.42181   -0.65067    6.12015
C      4.02498    0.89700    3.79155
C      2.91323    0.40591    4.51999
C     -0.77245    0.19704    2.54532
C     -0.17517   -1.22912    2.73394
C     -0.67467    0.87297    3.93067
C      0.33462   -1.29092    4.19555
C      0.50463    0.17762    4.61012
C      5.40777   -2.76815    7.07341
C      4.82011    2.14921    1.92450
C      5.39075   -0.63676    8.45538
C      4.64268   -1.47402    7.38392
N      4.73592    0.60646    8.85486
O      3.33750   -1.80757    7.90774
O      1.69049    0.75162    4.02527
O      3.73008    1.63068    2.67473
H      6.52758   -0.35886    5.72298
H      6.17780    0.98036    3.70422
H      2.28916   -0.74606    6.23236
H     -0.18182    0.75929    1.81770
H     -1.80288    0.17192    2.17880
H     -0.91326   -2.01326    2.54128
H      0.65115   -1.38964    2.03653
H     -0.52934    1.95507    3.87903
H     -1.57573    0.67941    4.52411
H     -0.41413   -1.74822    4.85309
H      1.25643   -1.86654    4.30402
H      0.51841    0.33243    5.69461
H      5.56422   -3.35356    7.98915
H      6.39056   -2.55836    6.64246
H      4.84273   -3.37544    6.36088
H      4.37541    2.69602    1.09165
H      5.45722    1.34610    1.53185
H      5.43095    2.83627    2.52425
H      6.39923   -0.40169    8.09965
H      5.51551   -1.26533    9.34818
H      3.76299    0.39705    9.07887
H      4.70357    1.23444    8.05196
H      3.47085   -2.44036    8.63145
