20   
Generated by ForceBalance from scan.xyz: Frame 1 of 24
C       -3.0597359693   -2.6764500148    0.2611512784
C       -3.6217809677   -3.9430094833    0.6138883156
C       -1.7673958016   -2.9203530176   -0.1350856587
C       -2.6167116413   -4.8504045943    0.4214238202
C       -1.0901356933    0.1872578859    0.0034219389
C        0.2657136838   -1.5659033825    0.5896616189
C       -0.6413554912   -2.0343348265   -0.5790881385
N       -1.1042127169   -0.7365375475   -1.0351177691
N       -2.5964430139   -6.2731789231    0.5745659348
O       -1.5007481416   -6.8430730452    0.5400843222
O       -1.6491011038    1.2565033963    0.0481368239
O       -3.6990879858   -6.8209900921    0.7162805408
O       -1.4846977322   -4.2546005270   -0.0431764616
O       -0.3073629617   -0.3162888548    1.0122030398
H       -3.5449993112   -1.7104941238    0.3040718142
H       -4.6198800486   -4.1650321708    0.9636964904
H        0.2698135831   -2.2536520965    1.4350234798
H        1.2867340982   -1.3894406016    0.2389668451
H       -0.0486861520   -2.5561324797   -1.3363920679
H       -1.8495351477   -0.6490019878   -1.7149028032
20   
Generated by ForceBalance from scan.xyz: Frame 2 of 24
C       -3.0659092158   -2.6622758078    0.2843259978
C       -3.6240700762   -3.9325805636    0.6347636392
C       -1.7805993340   -2.9026535975   -0.1335724876
C       -2.6183042895   -4.8351652387    0.4329369866
C       -1.1180489280    0.2114499004   -0.0405725562
C        0.2521929468   -1.5270144559    0.5556083698
C       -0.6638588702   -2.0155928218   -0.5978820714
N       -1.1381636285   -0.7261009970   -1.0664587532
N       -2.5983023831   -6.2646047263    0.5487066423
O       -1.5044983873   -6.8095310181    0.7308846301
O       -1.6823028753    1.2783342495   -0.0046954140
O       -3.6871951508   -6.8407605522    0.4209439149
O       -1.4955270803   -4.2384765144   -0.0509661481
O       -0.3223111272   -0.2741801295    0.9667851537
H       -3.5511986144   -1.6969608824    0.3400288304
H       -4.6201992852   -4.1566964848    0.9893369100
H        0.2673235407   -2.2032046953    1.4101303640
H        1.2690929563   -1.3506969711    0.1929842213
H       -0.0755149602   -2.5436013514   -1.3542481880
H       -1.8932936405   -0.6526328458   -1.7370653128
20   
Generated by ForceBalance from scan.xyz: Frame 3 of 24
C       -3.0594075514   -2.6813064044    0.3077483031
C       -3.6285953916   -3.9506943082    0.6528570316
C       -1.7824800820   -2.9288083718   -0.1260763250
C       -2.6323768204   -4.8574239050    0.4382246661
C       -1.1005784246    0.1839544032   -0.0621062448
C        0.2649136211   -1.5573569359    0.5367163329
C       -0.6644128444   -2.0508216693   -0.6040814381
N       -1.1363211294   -0.7624720783   -1.0789711169
N       -2.6218149608   -6.2949565728    0.5224242411
O       -1.5864266288   -6.8286593273    0.9332357553
O       -1.6581195446    1.2546645115   -0.0306907896
O       -3.6370873859   -6.8814432937    0.1269134936
O       -1.5100069611   -4.2709787192   -0.0560858192
O       -0.2981310139   -0.2972165537    0.9420486002
H       -3.5354979328   -1.7122689887    0.3765796785
H       -4.6257942842   -4.1662914110    1.0101191090
H        0.2834415207   -2.2259368269    1.3971415293
H        1.2797208096   -1.3900870443    0.1638990394
H       -0.0855532574   -2.5868746577   -1.3621439427
H       -1.8985111088   -0.6913167693   -1.7417881593
20   
Generated by ForceBalance from scan.xyz: Frame 4 of 24
C       -3.0698596439   -2.6513371000    0.3318089653
C       -3.6319172737   -3.9246483432    0.6876106358
C       -1.8033664494   -2.8937134643   -0.1278974612
C       -2.6387675217   -4.8249088359    0.4518274837
C       -1.1266680254    0.2218678291   -0.0861777921
C        0.2501515883   -1.5139730051    0.5024450947
C       -0.6935450860   -2.0150059169   -0.6230133009
N       -1.1750533138   -0.7296291841   -1.0976257810
N       -2.6116955620   -6.2713160824    0.5284824552
O       -1.6839908070   -6.7788439539    1.1651499515
O       -1.6859506194    1.2917880191   -0.0521586803
O       -3.4846385567   -6.8808051909   -0.0980600595
O       -1.5274217899   -4.2393004641   -0.0639840611
O       -0.3085079632   -0.2520852170    0.9085969196
H       -3.5470300173   -1.6838050977    0.4131506829
H       -4.6220126161   -4.1395010210    1.0648224374
H        0.2803836291   -2.1779311066    1.3661719693
H        1.2600051669   -1.3475091136    0.1159219211
H       -0.1231662272   -2.5520963144   -1.3868190006
H       -1.9494400716   -0.6649500384   -1.7468477317
20   
Generated by ForceBalance from scan.xyz: Frame 5 of 24
C       -3.0643426561   -2.6091211211    0.3945339397
C       -3.6216114405   -3.8906676708    0.7428839990
C       -1.8063551459   -2.8412886450   -0.0865888780
C       -2.6358962179   -4.7831880397    0.4682043582
C       -1.1147606539    0.2709693586    0.0121430564
C        0.2643268114   -1.4828795065    0.5395885945
C       -0.7007419938   -1.9560797243   -0.5795302818
N       -1.1857082081   -0.6589295123   -1.0177335374
N       -2.5894162842   -6.2388982390    0.5338419757
O       -1.8497441197   -6.7338163677    1.3871010837
O       -1.6682400336    1.3425426604    0.0789527480
O       -3.2568226776   -6.8572315727   -0.2986517399
O       -1.5305183696   -4.1919739160   -0.0496466559
O       -0.2800375050   -0.2264994826    0.9811304066
H       -3.5412987870   -1.6439132165    0.5007180991
H       -4.6037548983   -4.1089032819    1.1385041539
H        0.3046907978   -2.1644904870    1.3890947792
H        1.2688427033   -1.3136709062    0.1404542599
H       -0.1455074875   -2.4769313730   -1.3655456195
H       -1.9726593477   -0.5787288909   -1.6498649655
20   
Generated by ForceBalance from scan.xyz: Frame 6 of 24
C       -3.0609374551   -2.6142364106    0.4069502683
C       -3.6179325226   -3.8974029616    0.7568824029
C       -1.8127071326   -2.8462595697   -0.0959888660
C       -2.6495168000   -4.7912195283    0.4359464638
C       -1.0952738908    0.2540780923    0.0679658270
C        0.2763521894   -1.5208114325    0.5391894046
C       -0.7037295895   -1.9605474916   -0.5803144586
N       -1.1823654340   -0.6495905384   -0.9838883237
N       -2.5896102276   -6.2493299899    0.5294825309
O       -2.1331038826   -6.7215602050    1.5720339616
O       -1.6413827556    1.3270967511    0.1657898100
O       -2.9963460205   -6.8876901435   -0.4426667789
O       -1.5454577931   -4.2012226758   -0.0828367379
O       -0.2542837357   -0.2717072589    1.0163616883
H       -3.5325283661   -1.6485007260    0.5308485643
H       -4.5890475931   -4.1127823769    1.1802956852
H        0.3207614164   -2.2227486678    1.3718171819
H        1.2778384053   -1.3489582542    0.1334908991
H       -0.1606261273   -2.4673395478   -1.3837776087
H       -1.9761510216   -0.5493528786   -1.6045542378
20   
Generated by ForceBalance from scan.xyz: Frame 7 of 24
C       -3.0502384645   -2.6139946667    0.4207198296
C       -3.5987797655   -3.8983579991    0.7724038152
C       -1.8078865206   -2.8426991663   -0.1013006283
C       -2.6455172432   -4.7935317831    0.4069716259
C       -1.0895125027    0.2482285962    0.1226550581
C        0.2908736794   -1.5345341722    0.5343225266
C       -0.7029921814   -1.9495840290   -0.5822055414
N       -1.1852934603   -0.6297123325   -0.9502455308
N       -2.5783848964   -6.2446186107    0.5287573997
O       -2.4648941150   -6.7039023676    1.6675359001
O       -1.6369072729    1.3168779834    0.2538862497
O       -2.6935468558   -6.8969626475   -0.5112486102
O       -1.5431484276   -4.1960333809   -0.1099618693
O       -0.2374067519   -0.2992573195    1.0486042577
H       -3.5203402662   -1.6492900623    0.5577572412
H       -4.5570738773   -4.1174075320    1.2222998134
H        0.3486951992   -2.2559373474    1.3492567577
H        1.2860855865   -1.3495196105    0.1191002058
H       -0.1712656913   -2.4393708394   -1.4035025332
H       -1.9844678954   -0.5148828656   -1.5614315776
20   
Generated by ForceBalance from scan.xyz: Frame 8 of 24
C       -3.0549457638   -2.6136402716    0.4460174642
C       -3.5941330199   -3.8994223486    0.7934325365
C       -1.8171699151   -2.8372622219   -0.0941749954
C       -2.6500280802   -4.7948484231    0.3951410486
C       -1.0925961229    0.2545815566    0.1612162443
C        0.2874630066   -1.5366521872    0.5363272820
C       -0.7188558812   -1.9356316423   -0.5753124871
N       -1.2050684132   -0.6112808806   -0.9198314637
N       -2.5818641664   -6.2360221250    0.5248564338
O       -2.7863104621   -6.7005912489    1.6508426359
O       -1.6338024644    1.3240077703    0.3096930498
O       -2.4088054806   -6.8866699644   -0.5100865217
O       -1.5523899430   -4.1863140346   -0.1243822654
O       -0.2320882320   -0.3066230770    1.0712131546
H       -3.5231329661   -1.6502803007    0.5978555702
H       -4.5422636366   -4.1260171942    1.2606857838
H        0.3523909131   -2.2683160781    1.3415348852
H        1.2786303134   -1.3494452241    0.1126257834
H       -0.1964220303   -2.4147623414   -1.4087054808
H       -2.0079711066   -0.4854662654   -1.5238467759
20   
Generated by ForceBalance from scan.xyz: Frame 9 of 24
C       -3.0533335414   -2.5950353978    0.4662188967
C       -3.5770159061   -3.8745077535    0.8454922025
C       -1.8262705000   -2.8267807231   -0.1007060027
C       -2.6404679738   -4.7787686709    0.4393862202
C       -1.1203487736    0.2768809642    0.0702704775
C        0.2779983426   -1.4970876338    0.4621379842
C       -0.7445996014   -1.9275908349   -0.6229863182
N       -1.2465138998   -0.6149610050   -0.9878018257
N       -2.5732347342   -6.2077454038    0.5988033844
O       -3.0353320564   -6.6634655664    1.6521847769
O       -1.6655202913    1.3461221089    0.2036488630
O       -2.1448728108   -6.8680797700   -0.3537752931
O       -1.5573402933   -4.1710753510   -0.1148959580
O       -0.2404567535   -0.2584369550    0.9775644098
H       -3.5197852866   -1.6299022818    0.6121859691
H       -4.5119894098   -4.0997522505    1.3388196462
H        0.3616509867   -2.2097063227    1.2825704013
H        1.2604649212   -1.3138874931    0.0171265861
H       -0.2338379981   -2.4225445612   -1.4542243444
H       -2.0589071234   -0.5067283591   -1.5823889130
20   
Generated by ForceBalance from scan.xyz: Frame 10 of 24
C       -3.0106534161   -2.6345264327    0.4710641366
C       -3.5396586505   -3.9173941468    0.8224248585
C       -1.7847647772   -2.8605401202   -0.1036797763
C       -2.6026839475   -4.8184129236    0.4023745859
C       -1.0495474469    0.2340011116    0.1375835170
C        0.3349174886   -1.5628981864    0.4713397108
C       -0.7021095565   -1.9559862293   -0.6143716289
N       -1.1964229258   -0.6307622038   -0.9399626744
N       -2.5569621922   -6.2476277439    0.5099516609
O       -3.2413219508   -6.7493089875    1.4121260915
O       -1.5813927902    1.3055163363    0.3020206712
O       -1.9026418591   -6.8666879657   -0.3360872343
O       -1.5207112910   -4.2026488925   -0.1463434813
O       -0.1665638531   -0.3327722950    1.0226431781
H       -3.4708353927   -1.6700508508    0.6395024774
H       -4.4764103583   -4.1508987157    1.3082942403
H        0.4196944909   -2.2968357708    1.2726181748
H        1.3146626104   -1.3782027607    0.0211299900
H       -0.2040922233   -2.4343287351   -1.4629213579
H       -2.0104235034   -0.4980386272   -1.5272385306
20   
Generated by ForceBalance from scan.xyz: Frame 11 of 24
C       -3.0082587684   -2.6317508570    0.4930865677
C       -3.5312763492   -3.9179194714    0.8342625321
C       -1.7886322514   -2.8510814358   -0.0998325960
C       -2.5918546736   -4.8150099768    0.4057432103
C       -1.0700613426    0.2489192092    0.1334437018
C        0.3287833111   -1.5397774166    0.4512051556
C       -0.7181740049   -1.9390716315   -0.6227529088
N       -1.2240889396   -0.6167811464   -0.9425281933
N       -2.5523076201   -6.2427616968    0.4901939751
O       -3.4071640118   -6.7667697488    1.2189210076
O       -1.6061630470    1.3172093117    0.3044921342
O       -1.7091587139   -6.8406980035   -0.1868632574
O       -1.5209644811   -4.1902616844   -0.1555623003
O       -0.1739775858   -0.3129778472    1.0084561491
H       -3.4674431883   -1.6693299424    0.6756309205
H       -4.4644314950   -4.1599109546    1.3226485422
H        0.4276273199   -2.2734600754    1.2510579057
H        1.3019091801   -1.3490755675   -0.0106652714
H       -0.2265633807   -2.4150918441   -1.4763175900
H       -2.0458258892   -0.4889008199   -1.5200656369
20   
Generated by ForceBalance from scan.xyz: Frame 12 of 24
C       -2.9844283935   -2.6397708254    0.5067808588
C       -3.5361654737   -3.9130765017    0.8494377938
C       -1.7702373869   -2.8883698614   -0.0860812014
C       -2.6095285716   -4.8315941671    0.4376736658
C       -0.9609486436    0.1796548824    0.1868745977
C        0.3946030978   -1.6512879860    0.4433029661
C       -0.6834250998   -2.0007371142   -0.6168431395
N       -1.1556677506   -0.6588816906   -0.9043557300
N       -2.6157277214   -6.2600903650    0.5037916543
O       -3.6129584917   -6.7731227991    1.0322501801
O       -1.4659479910    1.2575480287    0.3889851590
O       -1.6450841371   -6.8676997574    0.0400934182
O       -1.5294996192   -4.2325769422   -0.1345022834
O       -0.0656470845   -0.4236754260    1.0345739604
H       -3.4218745344   -1.6669318604    0.6873541967
H       -4.4779847816   -4.1339693116    1.3309933248
H        0.4900613210   -2.4034722602    1.2261026222
H        1.3629056084   -1.4759340796   -0.0344796228
H       -0.2224310640   -2.4765734059   -1.4875030424
H       -1.9827961882   -0.4966360118   -1.4653867882
20   
Generated by ForceBalance from scan.xyz: Frame 13 of 24
C       -2.9682879870   -2.6718501437    0.5088354467
C       -3.5218633911   -3.9431106302    0.8575318259
C       -1.7631923106   -2.9249646999   -0.1000440128
C       -2.5973118379   -4.8644454646    0.4485168571
C       -0.9423831406    0.1416317422    0.1431683188
C        0.4112682839   -1.6912792148    0.3943701859
C       -0.6808903578   -2.0440228138   -0.6503144526
N       -1.1523319881   -0.7025260188   -0.9410648655
N       -2.6111335495   -6.2940268723    0.5025575765
O       -3.6907815844   -6.8149779640    0.8177973591
O       -1.4429830798    1.2215825192    0.3451265776
O       -1.5546784641   -6.8927755292    0.2738746409
O       -1.5274467564   -4.2703582962   -0.1472625824
O       -0.0380372745   -0.4585715905    0.9833032286
H       -3.4000130154   -1.6972679268    0.6938030704
H       -4.4624950881   -4.1600820057    1.3432845454
H        0.5136205774   -2.4389164880    1.1806402905
H        1.3743191413   -1.5219923333   -0.0960368570
H       -0.2317860031   -2.5271936946   -1.5231539774
H       -1.9877586725   -0.5422943453   -1.4903259107
20   
Generated by ForceBalance from scan.xyz: Frame 14 of 24
C       -2.9682025143   -2.6614801849    0.5346246814
C       -3.5215303588   -3.9362305672    0.8769833988
C       -1.7719972285   -2.9099237274   -0.0913094067
C       -2.5971019716   -4.8521483966    0.4607526517
C       -0.9625542672    0.1638137572    0.1247818681
C        0.4031661712   -1.6613042429    0.3688345539
C       -0.7012039706   -2.0260284515   -0.6586608756
N       -1.1836924882   -0.6885326580   -0.9504376749
N       -2.6158167236   -6.2856634838    0.4861802416
O       -3.7325813603   -6.8163920572    0.5583953493
O       -1.4649674948    1.2430520133    0.3266520666
O       -1.5290101093   -6.8736842836    0.5039400567
O       -1.5362044982   -4.2566677940   -0.1484288885
O       -0.0440289076   -0.4268239657    0.9562303163
H       -3.3970308861   -1.6882484805    0.7330089794
H       -4.4605845052   -4.1549891216    1.3652193184
H        0.5198278818   -2.4034309420    1.1583147204
H        1.3586855964   -1.4901552934   -0.1355269023
H       -0.2613470316   -2.5109679424   -1.5352658917
H       -2.0278264733   -0.5361134098   -1.4884533543
20   
Generated by ForceBalance from scan.xyz: Frame 15 of 24
C       -2.9557101641   -2.6827539152    0.5617062246
C       -3.5197353852   -3.9550001526    0.9047373830
C       -1.7762262841   -2.9380697578   -0.0894026761
C       -2.6104397403   -4.8748945566    0.4713739221
C       -0.9568088073    0.1376085418    0.0836937612
C        0.4060401580   -1.6878566832    0.3404552835
C       -0.7073290144   -2.0631461223   -0.6736425327
N       -1.1894239567   -0.7278721789   -0.9782610026
N       -2.6498090380   -6.3138885838    0.4669708413
O       -3.7594493911   -6.8331268195    0.2942213272
O       -1.4550616030    1.2207429058    0.2755947572
O       -1.5993153961   -6.9117965901    0.7235463580
O       -1.5572961863   -4.2898425034   -0.1591927138
O       -0.0324101174   -0.4440747654    0.9149048629
H       -3.3700481561   -1.7065804207    0.7758174884
H       -4.4555216730   -4.1646810354    1.4033941948
H        0.5260589621   -2.4196762261    1.1390356963
H        1.3584994372   -1.5263626897   -0.1728919898
H       -0.2750782275   -2.5587364009   -1.5480832465
H       -2.0399353395   -0.5818424043   -1.5079804143
20   
Generated by ForceBalance from scan.xyz: Frame 16 of 24
C       -2.9679465832   -2.6805782833    0.5521467056
C       -3.5139373727   -3.9476568533    0.9518423700
C       -1.8032667737   -2.9463575850   -0.1169368402
C       -2.6064866717   -4.8703805445    0.5300502638
C       -1.0021110946    0.1398765203   -0.0719333633
C        0.3793201115   -1.6661529701    0.2194387532
C       -0.7540303452   -2.0852502213   -0.7544245768
N       -1.2535549755   -0.7650179224   -1.0960886699
N       -2.6288563381   -6.3179503982    0.5639967461
O       -3.6563862171   -6.8665961217    0.1530537208
O       -1.5040630704    1.2260622142    0.0919912354
O       -1.6592955982   -6.8825941161    1.0796923852
O       -1.5733457702   -4.3014789045   -0.1439599887
O       -0.0530389292   -0.4038935674    0.7569341087
H       -3.3863202377   -1.7017062560    0.7450684946
H       -4.4370596188   -4.1454281156    1.4784273182
H        0.5209250562   -2.3670567226    1.0419435386
H        1.3195285199   -1.5192454919   -0.3202727215
H       -0.3370875905   -2.6078809948   -1.6206307726
H       -2.1202462573   -0.6460095130   -1.6060288477
20   
Generated by ForceBalance from scan.xyz: Frame 17 of 24
C       -2.9539820731   -2.6853784955    0.5819478693
C       -3.5032383081   -3.9573567630    0.9741612302
C       -1.8016031153   -2.9453777715   -0.1056722706
C       -2.6136459179   -4.8747486784    0.5145431551
C       -0.9803565541    0.1347623051   -0.0259866230
C        0.3931927723   -1.6824718733    0.2295349212
C       -0.7511981740   -2.0827380275   -0.7390869371
N       -1.2461350673   -0.7550685481   -1.0593663685
N       -2.6283906148   -6.3323027527    0.5335711271
O       -3.4884941351   -6.8898044173   -0.1521148285
O       -1.4748518703    1.2216002678    0.1564348920
O       -1.8164189917   -6.8884675839    1.2765212785
O       -1.5829613820   -4.3058408311   -0.1590285684
O       -0.0265732792   -0.4245024503    0.7869553307
H       -3.3654180002   -1.7079093534    0.7957303924
H       -4.4174923256   -4.1544026771    1.5163746855
H        0.5374303144   -2.3943654732    1.0421235540
H        1.3298287491   -1.5340360526   -0.3160753266
H       -0.3450456189   -2.5952428511   -1.6164305413
H       -2.1175950382   -0.6258034819   -1.5585669996
20   
Generated by ForceBalance from scan.xyz: Frame 18 of 24
C       -2.9912980899   -2.6433311071    0.5509172634
C       -3.4957133265   -3.9043623482    1.0356350238
C       -1.8463101843   -2.9128608556   -0.1426397768
C       -2.6037993098   -4.8244805253    0.5914422995
C       -1.0502448282    0.1725124746   -0.1820326228
C        0.3478851932   -1.6250443734    0.0800795299
C       -0.8241922567   -2.0632767178   -0.8372162446
N       -1.3412772183   -0.7498091056   -1.1795525249
N       -2.5410976298   -6.2784347143    0.7350221857
O       -3.1063081703   -6.9492958503   -0.1301962749
O       -1.5480060237    1.2603135183   -0.0144679691
O       -1.9275007266   -6.7147314351    1.7104980503
O       -1.5951006600   -4.2709271032   -0.1245017324
O       -0.0646416799   -0.3545527917    0.6141737643
H       -3.4261438974   -1.6664793611    0.7152445287
H       -4.3847875994   -4.0887464061    1.6223688333
H        0.5255779614   -2.3113857041    0.9079199329
H        1.2645706203   -1.4850614144   -0.5005964201
H       -0.4429898309   -2.5978240442   -1.7126512080
H       -2.2293642799   -0.6423059196   -1.6539189640
20   
Generated by ForceBalance from scan.xyz: Frame 19 of 24
C       -2.9853539717   -2.6545583327    0.5852434778
C       -3.4968631275   -3.9130547419    1.0641241248
C       -1.8546540091   -2.9321852672   -0.1303134135
C       -2.6389491564   -4.8439593561    0.5735379820
C       -1.0310322211    0.1394460877   -0.1190182733
C        0.3544524703   -1.6729677697    0.1008997926
C       -0.8259622109   -2.0842550034   -0.8177656561
N       -1.3306541594   -0.7597037682   -1.1353243875
N       -2.5768012072   -6.2924735102    0.7256237587
O       -2.8346105847   -6.9669332668   -0.2737947616
O       -1.5213995651    1.2263439851    0.0735622548
O       -2.2281743725   -6.7246045973    1.8267806690
O       -1.6270921508   -4.2924296074   -0.1413785628
O       -0.0471372562   -0.4111556750    0.6632150681
H       -3.4019679117   -1.6734185756    0.7700380923
H       -4.3707131370   -4.0921306835    1.6749267406
H        0.5329154979   -2.3766866857    0.9137886328
H        1.2681815865   -1.5268647094   -0.4829107586
H       -0.4554669884   -2.6089425504   -1.7035363194
H       -2.2191625993   -0.6353843268   -1.6049034417
20   
Generated by ForceBalance from scan.xyz: Frame 20 of 24
C       -3.0082729451   -2.6043351491    0.6172397259
C       -3.4994531103   -3.8607921472    1.1122396177
C       -1.8890348452   -2.8811694346   -0.1205075467
C       -2.6539700890   -4.7948295738    0.5982751917
C       -1.0743605459    0.1995576474   -0.1331599889
C        0.3161605823   -1.6106708519    0.0783502800
C       -0.8748177313   -2.0285303369   -0.8240979838
N       -1.3891076858   -0.7072082986   -1.1379149629
N       -2.5761940930   -6.2300707517    0.7813416094
O       -2.5357227155   -6.9222587845   -0.2397400044
O       -1.5608805721    1.2881951242    0.0588440696
O       -2.4978956565   -6.6408947121    1.9436628982
O       -1.6567367734   -4.2366187168   -0.1352030513
O       -0.0794275680   -0.3462347113    0.6386272769
H       -3.4249237898   -1.6239104476    0.8056132386
H       -4.3541919929   -4.0433816759    1.7485192749
H        0.5055255345   -2.3100209619    0.8925718366
H        1.2224080301   -1.4674947859   -0.5176106619
H       -0.5138245539   -2.5546207745   -1.7128904436
H       -2.2818783660   -0.5852764296   -1.5998195060
20   
Generated by ForceBalance from scan.xyz: Frame 21 of 24
C       -2.9881594935   -2.6203420760    0.6281685539
C       -3.4795350044   -3.8750258602    1.1176191675
C       -1.8807385881   -2.9018249433   -0.1295823290
C       -2.6494321898   -4.8154672810    0.5825523429
C       -1.0619941027    0.1788570369   -0.1457500781
C        0.3279314896   -1.6339881368    0.0458981195
C       -0.8745969745   -2.0478631942   -0.8434548763
N       -1.3911303008   -0.7255356984   -1.1479655687
N       -2.5894893847   -6.2433270536    0.7630675295
O       -2.2912900647   -6.9271662609   -0.2213090129
O       -1.5446456757    1.2679013820    0.0526687487
O       -2.7915060330   -6.6649686831    1.9084870954
O       -1.6586476103   -4.2547823469   -0.1605620122
O       -0.0589851059   -0.3702521291    0.6133887725
H       -3.3929045384   -1.6377492252    0.8307010068
H       -4.3246523009   -4.0597098397    1.7658696234
H        0.5264392605   -2.3352995303    0.8562459523
H        1.2268729081   -1.4911813888   -0.5610073299
H       -0.5254603148   -2.5731334285   -1.7373405589
H       -2.2878654693   -0.5999787871   -1.6010984580
20   
Generated by ForceBalance from scan.xyz: Frame 22 of 24
C       -3.0124396742   -2.5985892394    0.6261988618
C       -3.4878061838   -3.8584258581    1.1113677245
C       -1.9116635967   -2.8677530831   -0.1485615320
C       -2.6524596803   -4.7912067170    0.5650542322
C       -1.1328498235    0.2259796297   -0.1827855517
C        0.2804522686   -1.5697412652    0.0040445104
C       -0.9243739297   -2.0015530522   -0.8739109230
N       -1.4605659646   -0.6871295875   -1.1774348485
N       -2.6005752566   -6.2159490391    0.7227317588
O       -2.0781776966   -6.8740495692   -0.1830657086
O       -1.6259038574    1.3102691871    0.0154822373
O       -3.0570360765   -6.6673332047    1.7820701603
O       -1.6785776597   -4.2157872938   -0.1902991666
O       -0.1169300774   -0.3085543667    0.5697998016
H       -3.4212553708   -1.6199598767    0.8396512420
H       -4.3250881469   -4.0569193306    1.7654366296
H        0.4942531225   -2.2654893839    0.8152893300
H        1.1724050158   -1.4188565827   -0.6110739618
H       -0.5763167857   -2.5256538160   -1.7688561449
H       -2.3618185794   -0.5735266047   -1.6246654403
20   
Generated by ForceBalance from scan.xyz: Frame 23 of 24
C       -3.0133610084   -2.5812583434    0.6653657017
C       -3.4905054257   -3.8439111363    1.1372993395
C       -1.9078924063   -2.8453389340   -0.1059264132
C       -2.6429005687   -4.7732114868    0.6002289132
C       -1.0971912155    0.2381008151   -0.0798144598
C        0.2995158383   -1.5760448428    0.0398570031
C       -0.9238024079   -1.9732214024   -0.8284956141
N       -1.4494718481   -0.6463360734   -1.0922511260
N       -2.6063279662   -6.1973802393    0.7367725338
O       -1.8746191641   -6.8337778871   -0.0288019029
O       -1.5751589793    1.3222172206    0.1527871850
O       -3.3081344842   -6.6751131491    1.6397918008
O       -1.6697027582   -4.1906780779   -0.1517530249
O       -0.0764757604   -0.3261554393    0.6439774098
H       -3.4242830200   -1.6042853100    0.8822838314
H       -4.3352781380   -4.0496923233    1.7791042608
H        0.5201659994   -2.2945615586    0.8290418729
H        1.1822179683   -1.4178848655   -0.5866325304
H       -0.5957681257   -2.4805427679   -1.7406034907
H       -2.3546881310   -0.5109244205   -1.5251699301
20   
Generated by ForceBalance from scan.xyz: Frame 24 of 24
C       -2.9961283435   -2.5860287894    0.6797608930
C       -3.4735789956   -3.8446348705    1.1603174648
C       -1.9047294042   -2.8577369690   -0.1093009643
C       -2.6305485086   -4.7789922376    0.6233459416
C       -1.0988247743    0.2248429628   -0.1240448145
C        0.3026868997   -1.5857525737   -0.0090645163
C       -0.9328701998   -1.9922683189   -0.8557113618
N       -1.4633731004   -0.6682559024   -1.1246503476
N       -2.6135847821   -6.2034797610    0.7482586593
O       -1.7324672674   -6.8282546286    0.1485857313
O       -1.5761087727    1.3095436114    0.1070590160
O       -3.4999191088   -6.6958752235    1.4616096604
O       -1.6716774986   -4.2034716781   -0.1525236336
O       -0.0668456757   -0.3315520393    0.5898777083
H       -3.3998003180   -1.6064695887    0.8986047455
H       -4.3151540764   -4.0460665189    1.8075525094
H        0.5361884577   -2.2971837629    0.7827937875
H        1.1756860772   -1.4314540063   -0.6499395465
H       -0.6175569834   -2.5088861072   -1.7670573453
H       -2.3755209299   -0.5382914018   -1.5445926310
