29   

C        1.8427093727   -3.6843924167   -0.9217644502
C        0.8831303945   -3.5520264699    0.0679990605
C        5.3002947172    1.3414567206    0.0170219619
C        5.9482144068    1.1973114781   -1.2000006001
C        2.7205229882   -2.6337311774   -1.1788368420
C        0.7888841626   -2.3545923216    0.7710580462
C        4.2184264550    0.5056627908    0.2700521915
C        5.5075668950    0.2270512670   -2.1005868800
C        2.6735102619   -1.4065386280   -0.4628430914
C        1.6469081890   -1.2660116751    0.5149330792
C        3.7831421112   -0.4293819808   -0.6924102924
C        1.1407107171    1.1621348449    0.3382549875
C        0.8143204840   -0.0259837527    2.5293387898
N        4.4623654186   -0.5743732244   -1.8512594762
N        1.3597948197   -0.0425255335    1.1612410561
H        1.9219329785   -4.6065820975   -1.4861592543
H        0.1999340299   -4.3667350147    0.2791760782
H        5.6329032715    2.0671679855    0.7519120523
H        6.7991979119    1.8167874160   -1.4531204558
H        3.4770386362   -2.8070132634   -1.9359964449
H       -0.0038964153   -2.2639949085    1.5005302815
H        3.7353789016    0.5633513870    1.2343315691
H        6.0330326956    0.1132787030   -3.0415137837
H        1.4026533269    0.9803273727   -0.7085141183
H        1.7491854949    1.9922154016    0.7093719961
H        0.0851433180    1.4493816583    0.3707815063
H        1.0877515532    0.9067258087    3.0322017075
H        1.2259531611   -0.8541364244    3.1150716307
H       -0.2768115710   -0.1107583918    2.5050927654
29   

C        1.8944787343   -3.7399816967   -0.8463458913
C        0.8943775984   -3.5785265714    0.1016106881
C        5.3424506412    1.2394811242    0.1014292475
C        5.8471869138    1.2646659136   -1.1910513097
C        2.7797288997   -2.6943549250   -1.1000783902
C        0.7699081944   -2.3607266435    0.7685857656
C        4.3003287320    0.3573670755    0.3623613036
C        5.3057329937    0.4152342871   -2.1590018997
C        2.6941234735   -1.4565919458   -0.4191014052
C        1.6369080243   -1.2790541895    0.5145080442
C        3.7783665851   -0.4592762850   -0.6577745888
C        1.2499357719    1.1737084342    0.2989969046
C        0.7394130003    0.0126021910    2.4678818934
N        4.3001609627   -0.4334765302   -1.9010752518
N        1.3608617899   -0.0378773891    1.1337029667
H        1.9953465633   -4.6776988183   -1.3808737513
H        0.2040379357   -4.3881616481    0.3090378789
H        5.7492297925    1.8751692943    0.8810390893
H        6.6606084060    1.9281723361   -1.4558781073
H        3.5701435091   -2.8608967384   -1.8240070005
H       -0.0477591765   -2.2519012332    1.4674210234
H        3.8936657058    0.2833027271    1.3623068601
H        5.7163540501    0.4401600230   -3.1615873758
H        1.4702681332    0.9546301905   -0.7502093670
H        1.9431731814    1.9436082092    0.6502666441
H        0.2287239972    1.5647881809    0.3433111191
H        0.9882310270    0.9560682876    2.9635284620
H        1.1146902093   -0.8023829016    3.0949951219
H       -0.3490292133   -0.0685541070    2.3843383163
29   

C        1.9289436867   -3.8029662751   -0.7725933684
C        0.8949117996   -3.6065739651    0.1347774192
C        5.3981033894    1.1226688513    0.1560673077
C        5.7504107738    1.3194418070   -1.1726067312
C        2.8277687594   -2.7686035492   -1.0268918266
C        0.7513381395   -2.3675577342    0.7617551495
C        4.3984644738    0.1932458399    0.4182502649
C        5.1015980019    0.5915320957   -2.1744513216
C        2.7177184600   -1.5199625320   -0.3814660989
C        1.6331032205   -1.2986721885    0.5061115081
C        3.7813441371   -0.5063832564   -0.6318730151
C        1.3389314886    1.1652247311    0.2426662272
C        0.6986810145    0.0507021024    2.4011766442
N        4.1380335550   -0.3043151350   -1.9143957323
N        1.3705789677   -0.0394094912    1.0941378085
H        2.0413741560   -4.7562599175   -1.2763515567
H        0.1930706058   -4.4064621255    0.3414281439
H        5.8830641747    1.6686614955    0.9586160656
H        6.5231902245    2.0282692455   -1.4417149353
H        3.6419573669   -2.9376227253   -1.7236002521
H       -0.0878713711   -2.2338477953    1.4301137136
H        4.0818574782   -0.0055327884    1.4343877897
H        5.3893305601    0.7558489734   -3.2062524783
H        1.5192897947    0.9137245660   -0.8069303998
H        2.0953103639    1.8844806972    0.5698084089
H        0.3517651548    1.6345554114    0.2969315241
H        0.9402689664    1.0028864774    2.8836463339
H        1.0395445097   -0.7530221788    3.0615521552
H       -0.3866544507   -0.0191969639    2.2772736904
29   

C        1.9489030158   -3.8339962093   -0.6874487508
C        0.8818078679   -3.5967451776    0.1727379913
C        5.5014387051    0.9936659904    0.1980091203
C        5.6949722010    1.3671961773   -1.1257688279
C        2.8659303702   -2.8158000128   -0.9437424367
C        0.7254006479   -2.3352823408    0.7526809171
C        4.5302765710    0.0321436945    0.4515131423
C        4.9205519799    0.7786353198   -2.1305642462
C        2.7372984111   -1.5498919047   -0.3437834735
C        1.6264035381   -1.2835485427    0.4945676865
C        3.7936252875   -0.5290809385   -0.6023128492
C        1.4087771122    1.1836689377    0.1783487880
C        0.6691185064    0.1243002378    2.3335113775
N        3.9851715762   -0.1488208023   -1.8783368177
N        1.3755953801   -0.0070033277    1.0486250307
H        2.0698600803   -4.8048400655   -1.1543659428
H        0.1650034667   -4.3832035890    0.3795818830
H        6.0812033003    1.4338505971    1.0026953734
H        6.4372124464    2.1101611610   -1.3887047497
H        3.7023448323   -3.0043881904   -1.6081264656
H       -0.1347793578   -2.1715112931    1.3868817341
H        4.3208188876   -0.2949128675    1.4621143428
H        5.0818518585    1.0836887260   -3.1578519062
H        1.5347104119    0.9014392086   -0.8713073344
H        2.2264644764    1.8487520251    0.4704503759
H        0.4615243411    1.7267354767    0.2518916093
H        0.9130992440    1.0834315691    2.8008329655
H        0.9785488582   -0.6690090295    3.0213890081
H       -0.4133327675    0.0688365119    2.1807985393
29   

C        1.9971961101   -3.8541904968   -0.6204532707
C        0.8969683309   -3.5974097736    0.1919712856
C        5.6635611960    0.8146923714    0.1986971052
C        5.6914734829    1.3953006207   -1.0629283794
C        2.9141073802   -2.8362207367   -0.8794401530
C        0.7107374131   -2.3190085823    0.7250464061
C        4.6955080077   -0.1556047706    0.4304287809
C        4.7626626576    0.9949831047   -2.0287605051
C        2.7479762081   -1.5525159347   -0.3314225761
C        1.6123390347   -1.2690391655    0.4639839547
C        3.8007642451   -0.5217667704   -0.5846063487
C        1.3739028664    1.1851727891    0.0918664703
C        0.6383811994    0.1672541703    2.2692768196
N        3.8312553497    0.0582504442   -1.7972424269
N        1.3491205086    0.0157752995    0.9892408725
H        2.1429007651   -4.8396428127   -1.0480661699
H        0.1796258424   -4.3829911507    0.4003015766
H        6.3651322297    1.1064961396    0.9733499786
H        6.4221928343    2.1560930165   -1.3064107345
H        3.7756709296   -3.0376291581   -1.5065752093
H       -0.1692604376   -2.1409431849    1.3275440364
H        4.6110562000   -0.6385934938    1.3954396548
H        4.7952752080    1.4606144888   -3.0067707259
H        1.4191482806    0.8723484827   -0.9555551212
H        2.2336875924    1.8228246446    0.3161460373
H        0.4548930374    1.7674604629    0.2096952458
H        0.8765268678    1.1360882107    2.7193002240
H        0.9501630390   -0.6116918877    2.9723368768
H       -0.4433382839    0.1032348837    2.1150031177
29   

C        2.0281939794   -3.8401575290   -0.5260205566
C        0.8941072369   -3.5637632059    0.2314754599
C        5.8737356387    0.5709994497    0.1196452201
C        5.7552888148    1.3684457617   -1.0112669658
C        2.9435274513   -2.8222340888   -0.7914980988
C        0.6773625221   -2.2682199097    0.7082059670
C        4.8747681594   -0.3700587681    0.3411968595
C        4.6600071426    1.1993072595   -1.8638370068
C        2.7384016235   -1.5168157545   -0.3114322746
C        1.5784643829   -1.2201666268    0.4409067150
C        3.8010539589   -0.4901630182   -0.5520688742
C        1.2018080188    1.1922741755   -0.0194077641
C        0.6258213163    0.2383627290    2.2325360036
N        3.7004877330    0.2889410562   -1.6428202385
N        1.2927758651    0.0709493838    0.9315027820
H        2.2014823562   -4.8409827613   -0.9049114409
H        0.1771366619   -4.3484322955    0.4444983601
H        6.7094220052    0.6774163058    0.8035645011
H        6.5004296731    2.1197420020   -1.2399892808
H        3.8325338075   -3.0411146565   -1.3726321654
H       -0.2222984894   -2.0736622438    1.2758602317
H        4.9056969033   -1.0186055149    1.2071323456
H        4.5818275220    1.8294754158   -2.7419803406
H        1.2105388423    0.8285022832   -1.0512725822
H        2.0328888359    1.8878083515    0.1271797260
H        0.2575189500    1.7272613262    0.1203656851
H        0.8771011175    1.2139786191    2.6601386810
H        0.9627165514   -0.5306464420    2.9349273642
H       -0.4603295060    0.1689004510    2.1164503605
29   

C        2.0676121744   -3.8308498006   -0.4245899668
C        0.8922909151   -3.5339038881    0.2577979330
C        6.0409388839    0.3664926009   -0.0148473046
C        5.8158352088    1.3410252787   -0.9778859363
C        2.9886579509   -2.8162306545   -0.6833340202
C        0.6449329844   -2.2228551537    0.6715743582
C        5.0214324393   -0.5512600507    0.2112009251
C        4.6011022251    1.3597223110   -1.6695275771
C        2.7485589061   -1.4906342462   -0.2763564969
C        1.5531230807   -1.1799265895    0.4123991245
C        3.8190005471   -0.4725845785   -0.5076524980
C        0.9821528937    1.1651756249   -0.1371351064
C        0.6347617871    0.2989726771    2.1936889473
N        3.6235733801    0.4697050989   -1.4463316166
N        1.2363347519    0.1155834746    0.8637301551
H        2.2679702924   -4.8450549740   -0.7509708182
H        0.1696023497   -4.3150240227    0.4644599594
H        6.9725297022    0.3225566514    0.5398078742
H        6.5696245464    2.0855987072   -1.2000421089
H        3.9079100597   -3.0542806938   -1.2069973850
H       -0.2806030612   -2.0087887159    1.1888243741
H        5.1366395558   -1.3329183723    0.9508326518
H        4.4415233560    2.1245771353   -2.4204401726
H        1.0377679800    0.7577870303   -1.1513299001
H        1.7105938243    1.9745472968   -0.0348041811
H       -0.0257373985    1.5714334835   -0.0083652197
H        0.9096615799    1.2784158327    2.5971455906
H        1.0020425093   -0.4645233942    2.8868194082
H       -0.4559075960    0.2301525904    2.1321808296
29   

C        0.8231384608   -2.5602808840   -2.1762374237
C       -0.0990820634   -2.6070629434   -1.1377634000
C        5.8817119544    0.0043711574   -1.0144100886
C        5.6891055371    1.3669345444   -0.8237895009
C        1.9886577314   -1.8114396955   -2.0271160631
C        0.1603453599   -1.9218442713    0.0510488782
C        4.7514159962   -0.8054056484   -1.0091026553
C        4.3945421296    1.8646323739   -0.6428143482
C        2.2570034697   -1.0996067603   -0.8417958165
C        1.3395936364   -1.1733106599    0.2405221439
C        3.4803988700   -0.2467082653   -0.8034165243
C        0.4450580219   -0.1250711588    2.3371717393
C        2.9036606950   -0.6156305111    2.1362910831
N        3.3098066464    1.0782095624   -0.6385770791
N        1.5698288650   -0.5950470112    1.5123953530
H        0.6311161798   -3.0926861821   -3.1008591662
H       -1.0119136712   -3.1817431331   -1.2453511298
H        6.8730491715   -0.4111926368   -1.1635242034
H        6.5289539618    2.0501170285   -0.8181769051
H        2.6863853333   -1.7551069355   -2.8551760356
H       -0.5612868870   -2.0078868651    0.8514549759
H        4.8383427320   -1.8743034454   -1.1550602742
H        4.2607788674    2.9306923774   -0.5014692962
H       -0.3384063517    0.3041766661    1.7045322552
H        0.7810261136    0.6574854034    3.0246004141
H        0.0287371852   -0.9532154137    2.9191975578
H        3.3389631983    0.3877732494    2.1434420113
H        3.5752023076   -1.2982058255    1.6079919148
H        2.8256680433   -0.9797192071    3.1652493035
29   

C        0.9637059865   -2.6176846774   -2.1147353360
C       -0.0084134085   -2.6138980774   -1.1236856896
C        5.9448901184    0.0637821642   -1.1340212417
C        5.7659179670    1.3823972681   -0.7374702878
C        2.1320923396   -1.8807216317   -1.9353220377
C        0.2048263671   -1.8924026031    0.0514091863
C        4.8254466619   -0.7611273312   -1.1306002438
C        4.4950271479    1.8233797656   -0.3577294200
C        2.3613215605   -1.1280225333   -0.7636400196
C        1.3849277220   -1.1540145169    0.2749929348
C        3.5733740465   -0.2628370353   -0.7303870079
C        0.4072785019   -0.0615797987    2.3160508279
C        2.8673125055   -0.5741211034    2.2300960208
N        3.4211507261    1.0226625513   -0.3550344380
N        1.5608745676   -0.5579296782    1.5488833841
H        0.8067280997   -3.1775308897   -3.0297436883
H       -0.9247045194   -3.1776991556   -1.2565373724
H        6.9187992436   -0.3081889634   -1.4353726950
H        6.5983091141    2.0744555428   -0.7206757871
H        2.8571339038   -1.8619546011   -2.7409850032
H       -0.5559917649   -1.9438163118    0.8176958601
H        4.9136183961   -1.7981261793   -1.4268637954
H        4.3706942345    2.8558874012   -0.0530820126
H       -0.3501725814    0.3519669178    1.6427434252
H        0.7204274507    0.7390804698    2.9933396245
H       -0.0335782214   -0.8718796856    2.9051522881
H        3.3085589939    0.4269619211    2.2387505831
H        3.5563414606   -1.2689226897    1.7408418583
H        2.7445493198   -0.9136845693    3.2631165497
29   

C        1.0263767233   -2.7169416426   -2.0496629941
C        0.0197854437   -2.6502189496   -1.0985635458
C        5.9320555989    0.1251389673   -1.3039401549
C        5.7806626630    1.3864592810   -0.7465272319
C        2.2003283839   -1.9909396822   -1.8633539995
C        0.2054098845   -1.8786983985    0.0470598105
C        4.8272394166   -0.7193138386   -1.2852536219
C        4.5515413827    1.7512576058   -0.1932301000
C        2.4117910602   -1.1865116099   -0.7181655487
C        1.3902951325   -1.1512207640    0.2807733150
C        3.6066856804   -0.2966030312   -0.7211571715
C        0.3666389143    0.0331943381    2.2484126612
C        2.7938256293   -0.6237302506    2.2997520638
N        3.4927001344    0.9315758963   -0.1771672848
N        1.5300078935   -0.5321953171    1.5473811314
H        0.8902588994   -3.3137619910   -2.9444508929
H       -0.9018096200   -3.2035297620   -1.2387081746
H        6.8762129932   -0.1912148625   -1.7353830349
H        6.6032165855    2.0902188384   -0.7330088691
H        2.9335719988   -2.0203623325   -2.6601306325
H       -0.5818450813   -1.8842414916    0.7879410146
H        4.9168086185   -1.7163123894   -1.6943687380
H        4.4476803577    2.7383292101    0.2417692134
H       -0.3489870977    0.4460630584    1.5305198049
H        0.6829768722    0.8474023327    2.9077480412
H       -0.1258174245   -0.7383872095    2.8486089276
H        3.2533957092    0.3643428639    2.3982974893
H        3.4989025144   -1.2973783532    1.8036494949
H        2.6043037389   -1.0260320240    3.2995321761
29   

C        1.0770391337   -2.8022980972   -1.9543879805
C        0.0447226147   -2.6763331280   -1.0409482215
C        5.8957713691    0.2240252617   -1.4595306758
C        5.7979101282    1.4081290872   -0.7467974316
C        2.2542809344   -2.0810162210   -1.7717480446
C        0.2091826500   -1.8516070594    0.0675748510
C        4.8045537012   -0.6379890834   -1.4259498265
C        4.6349819555    1.6784692922   -0.0264785744
C        2.4550287211   -1.2195321700   -0.6608442599
C        1.3962359170   -1.1277420378    0.3014249714
C        3.6355797977   -0.3075149943   -0.7014551603
C        0.3291052247    0.1654900969    2.1761563784
C        2.6996701691   -0.6491055625    2.3891204920
N        3.5903264434    0.8419674762    0.0017265140
N        1.4973924782   -0.4766008045    1.5544599571
H        0.9578900727   -3.4403300946   -2.8228188214
H       -0.8799572746   -3.2246428681   -1.1804969276
H        6.7924645606   -0.0240972882   -2.0181170957
H        6.6127864908    2.1207805382   -0.7365107556
H        2.9859825821   -2.1676856668   -2.5633078385
H       -0.5980691958   -1.8132266947    0.7856797664
H        4.8877238414   -1.5776103398   -1.9513876703
H        4.5720004936    2.6032052139    0.5349511445
H       -0.3402414841    0.5671288984    1.4090226958
H        0.6500348955    0.9989153989    2.8086093856
H       -0.2174075174   -0.5569710772    2.7906262530
H        3.1796043175    0.3173369765    2.5712120832
H        3.4209809779   -1.3149178632    1.9055847228
H        2.4271052989   -1.0961547469    3.3498563560
29   

C        1.1255774627   -2.8990511444   -1.8573311058
C        0.0833023844   -2.7400686003   -0.9639417165
C        5.7998131773    0.3921636751   -1.6603972870
C        5.8301157035    1.4153751417   -0.7297704079
C        2.2953824671   -2.1603223454   -1.6979161363
C        0.2336835621   -1.8668712911    0.1059983825
C        4.7145246418   -0.4781041115   -1.6284640327
C        4.7929862713    1.5249080293    0.1922171487
C        2.4829041409   -1.2337196012   -0.6328496113
C        1.4110289171   -1.1211462592    0.3171637431
C        3.6679133062   -0.3207191881   -0.6821049408
C        0.3019564164    0.3180994752    2.0505612535
C        2.5587235507   -0.7039832193    2.4914449716
N        3.7549422636    0.6810903444    0.2162149382
N        1.4682033948   -0.4197953779    1.5424354231
H        1.0236651143   -3.5844351375   -2.6912361848
H       -0.8349662082   -3.3032838142   -1.0854063997
H        6.5953050573    0.2723613186   -2.3887402937
H        6.6467521194    2.1256785120   -0.7074332504
H        3.0295031518   -2.3197012235   -2.4721264162
H       -0.5777891483   -1.8032787474    0.8179139862
H        4.7250473595   -1.2732380495   -2.3548988147
H        4.8255956241    2.3253231906    0.9219834024
H       -0.3260207606    0.6601922223    1.2220354548
H        0.6302574299    1.1997346309    2.6094162518
H       -0.2925757142   -0.3222643985    2.7099165691
H        3.0626490887    0.2237779983    2.7795917343
H        3.2978504216   -1.3769144426    2.0455432044
H        2.1601463172   -1.1878490400    3.3881398834
29   

C        1.2166054608   -2.9876789619   -1.7905324654
C        0.2048597950   -2.8664719172   -0.8551285640
C        5.6159896411    0.6364262585   -1.9200901324
C        5.9307136406    1.3372329640   -0.7690734309
C        2.3492295658   -2.1825127060   -1.6933937202
C        0.3489578152   -1.9569579774    0.1863829380
C        4.5051171236   -0.2000433572   -1.8807888400
C        5.1304198128    1.1831953111    0.3603449453
C        2.5151548490   -1.2122444079   -0.6666934756
C        1.4848189032   -1.1357076651    0.3225339213
C        3.7300446921   -0.3439813381   -0.7017562832
C        0.3324258238    0.5091245350    1.8013378382
C        2.4084726473   -0.6818578690    2.5713761960
N        4.0663923503    0.3719312448    0.3884766887
N        1.4999804937   -0.3211530445    1.4704051505
H        1.1284564251   -3.7097471776   -2.5944893556
H       -0.6820942913   -3.4862031910   -0.9216809545
H        6.2065582871    0.7455282154   -2.8239121373
H        6.7804685121    2.0071946295   -0.7385835339
H        3.1050008692   -2.3552348916   -2.4461888582
H       -0.4347626462   -1.9040175571    0.9303475315
H        4.2449872035   -0.7052111594   -2.7974647179
H        5.3778848654    1.7421272420    1.2551209698
H       -0.2631752507    0.7086316385    0.9049194764
H        0.6599825721    1.4693515289    2.2110068935
H       -0.2984018334   -0.0000369391    2.5369491555
H        2.9361911409    0.2063996892    2.9319121446
H        3.1516621744   -1.4122726509    2.2359388968
H        1.8443019865   -1.1263456850    3.3967861131
29   

C        1.2651216072   -3.0416725156   -1.7418844347
C        0.2692077484   -2.9535551183   -0.7813601826
C        5.4287246915    0.8416685027   -1.9367124207
C        5.9304407239    1.2921076638   -0.7259428918
C        2.3714655444   -2.1971846133   -1.6687326750
C        0.3957590887   -2.0272014468    0.2509931462
C        4.3129539307    0.0125062016   -1.8980407485
C        5.3053456299    0.9057924198    0.4600294312
C        2.5180303704   -1.2332908567   -0.6401466605
C        1.5030560572   -1.1656709845    0.3552134321
C        3.7231937656   -0.3583729363   -0.6691720454
C        0.3262217716    0.5792767917    1.6725746048
C        2.3104864409   -0.6335965442    2.6229247012
N        4.2338275198    0.1031775503    0.4870872721
N        1.4962151596   -0.2822023755    1.4481186727
H        1.1855838619   -3.7681562808   -2.5426993870
H       -0.5957789498   -3.6053771622   -0.8270911356
H        5.8820957547    1.1329998589   -2.8785592730
H        6.7943689730    1.9433697677   -0.6892852332
H        3.1358141957   -2.3190188159   -2.4262250692
H       -0.3793719293   -1.9808627713    1.0045832046
H        3.8840403033   -0.3213446158   -2.8322328959
H        5.7030351149    1.2681711942    1.4006671449
H       -0.2265867262    0.7254989412    0.7391603801
H        0.6478905659    1.5607105547    2.0338265869
H       -0.3441335750    0.1255806305    2.4094810566
H        2.8661986457    0.2417392991    2.9723939848
H        3.0283280774   -1.4217553513    2.3741641650
H        1.6706433831   -1.0018482695    3.4305767908
29   

C        1.3245018718   -3.1229077405   -1.6715031517
C        0.3190354807   -3.0259934055   -0.7181254355
C        5.2709931893    0.9975851219   -1.9011614788
C        5.9187140744    1.2658003408   -0.7040455589
C        2.4192747465   -2.2616621912   -1.6090709863
C        0.4199890809   -2.0695778998    0.2921387246
C        4.1614587125    0.1610405003   -1.8520348063
C        5.4417488749    0.6957490246    0.4785848639
C        2.5402204025   -1.2863573189   -0.5942492660
C        1.5156377166   -1.1928646973    0.3818408038
C        3.7219663395   -0.3814695332   -0.6292212033
C        0.3161570922    0.5969412061    1.6094542579
C        2.3045775984   -0.5516353659    2.6257295611
N        4.3741048070   -0.1126235608    0.5161220552
N        1.4994446239   -0.2567984312    1.4292300015
H        1.2593293196   -3.8659274383   -2.4582812935
H       -0.5364710299   -3.6907042706   -0.7557979730
H        5.6122438851    1.4276130707   -2.8371522097
H        6.7865834627    1.9121860826   -0.6747529911
H        3.1960741274   -2.3627189131   -2.3583540157
H       -0.3646736982   -2.0090252229    1.0347339818
H        3.6157830889   -0.0606553155   -2.7594462928
H        5.9574822158    0.9133021357    1.4064743168
H       -0.2144498902    0.7201846772    0.6599586750
H        0.6198392046    1.5883864623    1.9589318847
H       -0.3676412798    0.1514127122    2.3388995832
H        2.8963553967    0.3239939195    2.9084549143
H        2.9870609039   -1.3866273252    2.4377431441
H        1.6539756452   -0.8325084642    3.4595536149
29   

C        1.3611538942   -3.1916292360   -1.6186895264
C        0.3239362821   -3.0572011315   -0.7023870740
C        5.1330861449    1.1304845405   -1.8171797073
C        5.9159581588    1.2249226018   -0.6748389101
C        2.4595278723   -2.3352680502   -1.5466398423
C        0.3954235521   -2.0679228384    0.2801652140
C        4.0258145905    0.2915091050   -1.7619973700
C        5.5706883344    0.4862074883    0.4602683981
C        2.5493869017   -1.3370278212   -0.5557260853
C        1.4956787001   -1.1978159683    0.3785327543
C        3.7216987453   -0.4154451732   -0.5864324380
C        0.2645328463    0.5974880240    1.5719978837
C        2.3264878927   -0.4294296880    2.5700259299
N        4.5030828741   -0.3228282442    0.5039589801
N        1.4725322490   -0.2210101405    1.3890783881
H        1.3160404111   -3.9571814288   -2.3849809909
H       -0.5344787010   -3.7176103752   -0.7484917166
H        5.3728181178    1.6899899588   -2.7154655713
H        6.7902481963    1.8629000650   -0.6525114113
H        3.2613573520   -2.4472312704   -2.2679461307
H       -0.4143257739   -1.9796522935    0.9922247568
H        3.3770306336    0.1849257618   -2.6215205197
H        6.1933573529    0.5674808480    1.3434387064
H       -0.2706541138    0.7054154515    0.6232048150
H        0.5396288348    1.5978975964    1.9198220868
H       -0.4038243581    0.1332313933    2.3040350661
H        2.9570208708    0.4477031453    2.7420216335
H        2.9696530006   -1.3048534638    2.4356035540
H        1.7087168582   -0.6080708328    3.4554188844
29   

C        1.4017680190   -3.2613228765   -1.5791915529
C        0.3248727483   -3.0774094110   -0.7179313854
C        5.0022634345    1.2775246489   -1.6937209432
C        5.9170316961    1.1956863186   -0.6524269036
C        2.5057244630   -2.4136428426   -1.4921180374
C        0.3629569765   -2.0499442353    0.2276181028
C        3.8998515284    0.4322733727   -1.6391814158
C        5.7005565874    0.2849894593    0.3858790005
C        2.5583084555   -1.3783464323   -0.5403298445
C        1.4700021642   -1.1892996477    0.3425913224
C        3.7321844934   -0.4523649052   -0.5630165356
C        0.1936302503    0.5830692142    1.5392371019
C        2.3841132975   -0.2489993140    2.4413308535
N        4.6351801115   -0.5277637429    0.4298529536
N        1.4349400620   -0.1748985873    1.3181464095
H        1.3821686086   -4.0568166770   -2.3154525641
H       -0.5384028482   -3.7303941145   -0.7771556807
H        5.1399483127    1.9725419922   -2.5155685499
H        6.7957718073    1.8277175775   -0.6353835491
H        3.3386001060   -2.5546996636   -2.1720670810
H       -0.4776932000   -1.9308978992    0.8978062652
H        3.1508348243    0.4512803176   -2.4201593273
H        6.4250961258    0.2306036545    1.1898802736
H       -0.3661751254    0.6792487106    0.6034890608
H        0.4287511387    1.5910796155    1.8946062788
H       -0.4345396204    0.0791509128    2.2805489687
H        3.0378599911    0.6277659256    2.4469898241
H        2.9968421372   -1.1532829272    2.3745375984
H        1.8409033045   -0.2976859137    3.3900158482
29   

C        1.4305526019   -3.3488955252   -1.5152509883
C        0.3199421566   -3.1133203698   -0.7106117075
C        4.8672402423    1.4330034156   -1.4682581265
C        5.9031681685    1.1657612603   -0.5825833278
C        2.5369159457   -2.5048196994   -1.4256377113
C        0.3283441330   -2.0420045560    0.1865524163
C        3.7703086156    0.5794685262   -1.4393779992
C        5.8050919469    0.0741032481    0.2856763347
C        2.5532663036   -1.4205297239   -0.5308131465
C        1.4388224997   -1.1851560542    0.3065367206
C        3.7324648196   -0.4984879779   -0.5440002479
C        0.1295210406    0.5681932580    1.5129998011
C        2.4366598764   -0.0606002696    2.2846947659
N        4.7432194702   -0.7445978075    0.3071445598
N        1.3948079967   -0.1341159093    1.2459561955
H        1.4352221113   -4.1811866968   -2.2098779055
H       -0.5456007220   -3.7629427459   -0.7734940559
H        4.9097759676    2.2730373282   -2.1538066960
H        6.7851434125    1.7929873480   -0.5560805932
H        3.3977797315   -2.6828064971   -2.0606074401
H       -0.5378508551   -1.8926465757    0.8165422172
H        2.9277483909    0.7361514234   -2.1003999336
H        6.6216848285   -0.1209058248    0.9708812423
H       -0.4581188546    0.6568123598    0.5937279540
H        0.3318458125    1.5797686838    1.8785079551
H       -0.4558462701    0.0281085834    2.2637746772
H        3.0792694576    0.8092686944    2.1224115633
H        3.0479323475   -0.9680672139    2.2869477322
H        1.9754638190    0.0137936018    3.2742367830
29   

C        1.4827307476   -3.4292447725   -1.4943267854
C        0.3432917006   -3.1561459907   -0.7436316036
C        4.7906757451    1.5577163158   -1.1787048807
C        5.9245698959    1.1198150108   -0.5063078818
C        2.5868709243   -2.5827982894   -1.4022758623
C        0.3222026229   -2.0486949416    0.1085607473
C        3.6931662932    0.7047961251   -1.1962733113
C        5.9179125575   -0.1316034919    0.1179292733
C        2.5690204850   -1.4542970481   -0.5644046727
C        1.4305544742   -1.1887652107    0.2332051341
C        3.7544909867   -0.5434834537   -0.5614832982
C        0.0897214761    0.5492305640    1.4382659745
C        2.4600832293    0.0699026361    2.1237538832
N        4.8546742695   -0.9487047579    0.0968684957
N        1.3718447655   -0.1120760224    1.1460007084
H        1.5122302490   -4.2930368519   -2.1486912900
H       -0.5206313850   -3.8075842740   -0.8098379752
H        4.7595187544    2.5256483529   -1.6681668750
H        6.8125441910    1.7371988424   -0.4575468533
H        3.4725193438   -2.7909993639   -1.9925601910
H       -0.5653368830   -1.8789622033    0.7023397955
H        2.7741085695    0.9901204820   -1.6918346419
H        6.8091400991   -0.4567137582    0.6417606964
H       -0.5160907146    0.6236501494    0.5295793304
H        0.2656613743    1.5653883674    1.8047931049
H       -0.4645059500   -0.0115361201    2.1974686485
H        3.0439837249    0.9636130392    1.8861230977
H        3.1218264024   -0.8012440094    2.1377224757
H        2.0455094117    0.1696237120    3.1315756110
29   

C        1.5093958755   -3.4785701302   -1.4308811443
C        0.3481310457   -3.1739975086   -0.7283250335
C        4.7612258014    1.6105008692   -0.9439448908
C        5.9614022082    1.0614416203   -0.5109815649
C        2.6118856195   -2.6303659732   -1.3390891765
C        0.3049688138   -2.0354441822    0.0803101857
C        3.6495642388    0.7762890068   -0.9590388120
C        6.0047396924   -0.2781040677   -0.1116480732
C        2.5725415070   -1.4650597727   -0.5519680131
C        1.4116272999   -1.1728724273    0.2061564846
C        3.7603927920   -0.5630052642   -0.5562964852
C        0.0461571645    0.5752187175    1.3723122191
C        2.4181604276    0.1386629317    2.0773619501
N        4.9277628051   -1.0771936326   -0.1290380705
N        1.3366033855   -0.0779939734    1.0978283884
H        1.5577102609   -4.3680838050   -2.0486282562
H       -0.5148268425   -3.8266217101   -0.7953691847
H        4.6910621806    2.6473984836   -1.2559229886
H        6.8635361883    1.6589933078   -0.4772732942
H        3.5140912876   -2.8644020480   -1.8938984393
H       -0.5988576506   -1.8465108014    0.6427555479
H        2.6812999496    1.1444115428   -1.2738522590
H        6.9483016460   -0.6900274259    0.2265913020
H       -0.5551829712    0.6298764547    0.4592603426
H        0.2097111540    1.5985022642    1.7244362258
H       -0.5068133081    0.0206432488    2.1370127943
H        2.9389641917    1.0780855848    1.8711547838
H        3.1403461628   -0.6830790026    2.0554986414
H        2.0039784387    0.1733400771    3.0897185164
29   

C        1.5908384970   -3.5274649125   -1.3879480164
C        0.3984958977   -3.2088869354   -0.7492718085
C        4.7870318847    1.6279435532   -0.7796158191
C        6.0201917596    1.0238149852   -0.5730407529
C        2.6847481484   -2.6718029263   -1.2709819559
C        0.3168476524   -2.0495291736    0.0240668155
C        3.6651246789    0.8077414096   -0.7579488752
C        6.0860933805   -0.3557761534   -0.3563292534
C        2.6133393498   -1.4811213530   -0.5192632552
C        1.4142511182   -1.1789612701    0.1763363394
C        3.7949077585   -0.5726548544   -0.5330450299
C       -0.0056340178    0.5732465563    1.2712743259
C        2.3296108343    0.1372566171    2.0885038172
N        4.9995270539   -1.1416617424   -0.3372071845
N        1.2973242794   -0.0779444010    1.0564078894
H        1.6701734507   -4.4326521328   -1.9791519209
H       -0.4586228079   -3.8666849674   -0.8373447766
H        4.7001090075    2.6954737101   -0.9534020986
H        6.9314976211    1.6082097300   -0.5800524475
H        3.6055849128   -2.9205201757   -1.7877690935
H       -0.6114363778   -1.8520301435    0.5418867034
H        2.6763062376    1.2199549148   -0.9148104122
H        7.0563377366   -0.8118794978   -0.1982056824
H       -0.5706939060    0.6142167812    0.3346389877
H        0.1399666318    1.6012562796    1.6173867677
H       -0.5864805017    0.0254532970    2.0200931479
H        2.8075586112    1.1118623206    1.9536907566
H        3.0967414709   -0.6421741646    2.0505087233
H        1.8764064535    0.0956599347    3.0837882133
29   

C        1.6314400799   -3.5498799375   -1.3027675426
C        0.4186013409   -3.2111110406   -0.7204216733
C        4.8339660877    1.6368430325   -0.6505735327
C        6.0675496396    1.0015620410   -0.6756564279
C        2.7234037881   -2.6947591189   -1.1695439069
C        0.3153945791   -2.0318061060    0.0157544713
C        3.7035357304    0.8323140184   -0.5663403186
C        6.1255995311   -0.3932971268   -0.6240550899
C        2.6407901632   -1.4782233734   -0.4509408423
C        1.4099696900   -1.1605062222    0.1859902477
C        3.8225811650   -0.5678858160   -0.4941455884
C       -0.0456019409    0.6102922207    1.2032789176
C        2.2362044028    0.1408840746    2.1444484514
N        5.0313623952   -1.1640240481   -0.5426286053
N        1.2595153199   -0.0559063790    1.0561967178
H        1.7288587632   -4.4697483044   -1.8680648346
H       -0.4376269349   -3.8679836904   -0.8228588010
H        4.7520007505    2.7175032574   -0.7036324771
H        6.9844186335    1.5732431445   -0.7431834408
H        3.6494766727   -2.9713637915   -1.6619297907
H       -0.6302262820   -1.8197958742    0.4949686084
H        2.7194480647    1.2820863927   -0.5717105765
H        7.0958309967   -0.8751722237   -0.6533289377
H       -0.5712177940    0.6365835436    0.2434129766
H        0.0946071037    1.6438079862    1.5347717129
H       -0.6621489894    0.0821918377    1.9376193408
H        2.6780580713    1.1398066620    2.0842566070
H        3.0385259226   -0.6016800378    2.0971715780
H        1.7419892112    0.0261642291    3.1141770647
29   

C        1.6751576506   -3.5834098174   -1.2118958484
C        0.4457991022   -3.2203805677   -0.6875894304
C        4.9061243254    1.6310483334   -0.5295068766
C        6.1087940821    0.9913210637   -0.7864016406
C        2.7671720077   -2.7304934137   -1.0685063223
C        0.3275145915   -2.0193195959    0.0056345002
C        3.7750959817    0.8354779102   -0.3850883314
C        6.1345902843   -0.3987448114   -0.9031577030
C        2.6785006656   -1.4835039619   -0.3918546848
C        1.4210212341   -1.1488034358    0.1879897535
C        3.8612798843   -0.5702685624   -0.4669861187
C       -0.0581474043    0.6538563479    1.1105196001
C        2.1393772076    0.1146456798    2.2057113236
N        5.0405885380   -1.1601828051   -0.7607882054
N        1.2381560474   -0.0427330500    1.0483372984
H        1.7865822296   -4.5208316166   -1.7448838784
H       -0.4109336909   -3.8749903906   -0.7998221833
H        4.8447055556    2.7120883393   -0.4592939111
H        7.0232072188    1.5570330337   -0.9121489277
H        3.6945713426   -3.0460528735   -1.5332559307
H       -0.6319188982   -1.7893848524    0.4477471674
H        2.8194773669    1.3175949654   -0.2407627430
H        7.0781246820   -0.8853956473   -1.1206754301
H       -0.5370062450    0.6589907161    0.1261247244
H        0.0881503606    1.6944982594    1.4158799034
H       -0.7206696146    0.1615587854    1.8295789445
H        2.5398901756    1.1321897321    2.2403512425
H        2.9775500043   -0.5869059389    2.1539660670
H        1.5945341638   -0.0875212945    3.1331061658
29   

C        1.7746768593   -3.6098576313   -1.0083967520
C        0.8426271883   -3.4934591697    0.0069424857
C        5.2554133264    1.4668455968   -0.0969939302
C        6.0558920537    1.1384564806   -1.1775978185
C        2.6677321990   -2.5688351951   -1.2512902253
C        0.7896497495   -2.3179207921    0.7470442615
C        4.1387333806    0.6732514381    0.1427208706
C        5.7261801311    0.0326566879   -1.9578088626
C        2.6706005399   -1.3604149045   -0.4942375382
C        1.6638153730   -1.2388202536    0.5075315017
C        3.8096242397   -0.4083300550   -0.7081950655
C        0.9809060144    1.1333608382    0.3885734057
C        0.9667266616   -0.0618384235    2.6024884141
N        4.6464128405   -0.7251895002   -1.7228922329
N        1.3819063538   -0.0380995973    1.1894468659
H        1.8219161128   -4.5136279783   -1.6052566283
H        0.1479323041   -4.3009734238    0.2079610654
H        5.4991717893    2.3018324346    0.5516371395
H        6.9403032542    1.7171922259   -1.4117142694
H        3.3928017329   -2.7457505871   -2.0373531368
H        0.0138879807   -2.2307406273    1.4953322406
H        3.5644063783    0.8977093637    1.0252276434
H        6.3699727674   -0.2283662945   -2.7895395879
H        1.3208823191    1.0360546205   -0.6471555495
H        1.4169422472    2.0457440008    0.8066799549
H       -0.1095046660    1.2270160963    0.3819020459
H        1.3156750916    0.8415095732    3.1119947201
H        1.4020730115   -0.9255555247    3.1152249575
H       -0.1240466501   -0.1164753404    2.6774762147
