45   

C       -2.7926019412   -1.1500496486   -0.8875184108
C       -1.7908282348   -0.1098620231   -0.6154479563
C       -0.6460625669   -0.6449372237   -0.0526004934
C       -4.0937385469   -0.9902492308   -1.5272289325
C       -2.3850335743   -2.3896256887   -0.5046334764
C       -4.4824462866   -3.3175256166   -1.2264676190
C       -7.2922861034   -1.8417457363   -1.0625456904
C       -7.9017777202   -0.7340216601   -0.6047004323
C       -2.0294794942    1.3570249299   -0.8871983420
C       -8.6139601185   -0.7484001083    0.7275725271
C       -7.7935711087    0.5872381989   -1.3286715990
C       -0.5643144312   -5.5979976722   -3.2133613982
C        0.6034718313    0.0770469210    0.3753640286
C       -6.2911451490   -1.9302288140   -2.1857226981
C       -2.7649266524   -4.8454576228   -0.2952154432
C       -2.2262431042   -5.6266441190   -1.4943196487
N       -4.9487845184   -2.0732353011   -1.6220553277
N       -3.2133049547   -3.5045900623   -0.6797404182
O       -4.4040606447    0.0808848392   -2.0290260892
O       -5.2124823476   -4.2935119518   -1.3587294763
O        1.7100489521   -0.4735764849   -0.3364186994
O       -1.0690549683   -4.9743897199   -2.0297415284
S       -0.7641705669   -2.3897487034    0.1806633070
H       -7.4689096385   -2.7710557345   -0.5315679159
H       -3.0136864997    1.6507690936   -0.5103101161
H       -1.2916584117    1.9942180665   -0.3970804055
H       -1.9992760693    1.5445831710   -1.9645771959
H       -8.2945456848    0.1018486353    1.3379519703
H       -9.6951055894   -0.6844265625    0.5722867530
H       -8.3943770212   -1.6657949774    1.2824835794
H       -8.4346444805    0.5801342420   -2.2147162918
H       -8.1147011234    1.4083822175   -0.6811364017
H       -6.7673904395    0.7967775704   -1.6332191388
H        0.3494857424   -5.0893142107   -3.5350768991
H       -1.3005177811   -5.5360346149   -4.0210054678
H       -0.3279438496   -6.6497465729   -3.0227419256
H        0.5395286934    1.1475056439    0.1690419160
H        0.7549961858   -0.0524630021    1.4516319341
H       -6.3598439359   -1.0607289775   -2.8472676380
H       -6.5293237796   -2.7945011121   -2.8157690049
H       -3.5996240313   -5.4001303728    0.1460765399
H       -1.9935640373   -4.7931209328    0.4778107456
H       -3.0052543846   -5.7082702470   -2.2598987655
H       -1.9587238919   -6.6373122166   -1.1700149728
H        1.4975478251   -0.5483065150   -1.2841226437
45   

C       -2.8770864611   -1.2080388125   -0.8729924463
C       -1.8974557627   -0.1584167592   -0.5579188314
C       -0.7673756030   -0.6851015566    0.0414618196
C       -4.1808306748   -1.0537028101   -1.5107536869
C       -2.4588477009   -2.4479909738   -0.5004308513
C       -4.5151848122   -3.4016609507   -1.3008144314
C       -7.3296439464   -1.9005556582   -1.1261654184
C       -7.8734741803   -0.7660393769   -0.6482644156
C       -2.1235827141    1.3027797662   -0.8677849381
C       -8.2849444352   -0.6582940078    0.8009652283
C       -7.8845517205    0.4966102861   -1.4741361766
C       -0.5074669571   -5.5904663102   -3.1988943508
C        0.4543606159    0.0427453291    0.5313722497
C       -6.3334065207   -2.0220733350   -2.2529780626
C       -2.8026997778   -4.9132830772   -0.3361398740
C       -2.2170137789   -5.6694681227   -1.5291362692
N       -4.9957951678   -2.1582428371   -1.6797516387
N       -3.2617909058   -3.5744599349   -0.7155211618
O       -4.5466974797    0.0423680742   -1.9122785979
O       -5.2217054555   -4.3881857899   -1.4747714297
O        1.5480166547   -0.2983442078   -0.3181158152
O       -1.0561357527   -4.9911502147   -2.0222930864
S       -0.8630188618   -2.4341660657    0.2410926296
H       -7.4534841946   -2.8002707229   -0.5330253714
H       -2.9664665886    1.6787102517   -0.2798879538
H       -1.2470427278    1.9144793245   -0.6485554361
H       -2.3571276943    1.4271477415   -1.9292970306
H       -7.9388223344    0.2901969550    1.2229402850
H       -9.3748414841   -0.7036947776    0.8835374333
H       -7.8534882775   -1.4722826194    1.3916434030
H       -8.6727174620    1.1693548477   -1.1228272141
H       -6.9260348132    1.0155827710   -1.3859889989
H       -8.0797810151    0.2752182130   -2.5272716111
H        0.4057229823   -5.0617603075   -3.4884434752
H       -1.2218451136   -5.5310477990   -4.0260995173
H       -0.2578195231   -6.6402963304   -3.0147286728
H        0.3054855663    1.1247904118    0.5240870283
H        0.6765583467   -0.2558701662    1.5607021858
H       -6.3857507080   -1.1591504865   -2.9244250946
H       -6.5803179769   -2.8936491043   -2.8694075454
H       -3.6408091532   -5.4870541132    0.0731210192
H       -2.0550802714   -4.8598214434    0.4597488750
H       -2.9722389944   -5.7535239545   -2.3179253844
H       -1.9420933230   -6.6799047665   -1.2103511863
H        1.2708981621   -0.2767624314   -1.2515706978
45   

C       -2.9296270446   -1.2411691702   -0.8747260033
C       -1.9656581528   -0.1868114030   -0.5285799263
C       -0.8400659118   -0.7112596135    0.0810831841
C       -4.2264123455   -1.0899553755   -1.5273108011
C       -2.5046273167   -2.4824162445   -0.5140312202
C       -4.5380706622   -3.4448583580   -1.3608675165
C       -7.3522931982   -1.9263558098   -1.1733119564
C       -7.8220156806   -0.7752251964   -0.6518178656
C       -2.1991843035    1.2765153203   -0.8225020954
C       -7.9168183328   -0.5734496941    0.8415170302
C       -7.9522463268    0.4508426314   -1.5208738727
C       -0.4828622350   -5.5736740270   -3.2189665673
C        0.3662041379    0.0214954718    0.6010572360
C       -6.3611734221   -2.0661127679   -2.3058903756
C       -2.8285994883   -4.9526119196   -0.3852075909
C       -2.2166315457   -5.6898847124   -1.5767062425
N       -5.0245386537   -2.2010539853   -1.7304029971
N       -3.2928700286   -3.6135415348   -0.7573540313
O       -4.6042545044    0.0105331881   -1.9052299823
O       -5.2334460585   -4.4350573502   -1.5567982287
O        1.4778364678   -0.3000035682   -0.2325988398
O       -1.0539567408   -4.9955278340   -2.0424929956
S       -0.9210156225   -2.4639592314    0.2530883688
H       -7.4350061348   -2.8118633296   -0.5523393228
H       -3.0418551687    1.6426261140   -0.2281563761
H       -1.3240260422    1.8892261930   -0.6004022637
H       -2.4360443856    1.4114561458   -1.8819580927
H       -7.4740437269    0.3868609795    1.1229975656
H       -8.9651875239   -0.5832586832    1.1536067972
H       -7.3834449705   -1.3655736495    1.3759272161
H       -8.7708060885    1.0801457315   -1.1587293803
H       -7.0277535162    1.0350399758   -1.4919374254
H       -8.1714823223    0.1780726799   -2.5572716685
H        0.4294121718   -5.0327127122   -3.4880193065
H       -1.1857850815   -5.5095047123   -4.0555782910
H       -0.2261465513   -6.6235831125   -3.0453029359
H        0.2075837916    1.1022005085    0.6037168307
H        0.5727839138   -0.2872349639    1.6306555670
H       -6.4094394725   -1.2048837026   -2.9802394999
H       -6.6154698111   -2.9403052217   -2.9155570919
H       -3.6683580054   -5.5381845550    0.0034690751
H       -2.0948393279   -4.9019040045    0.4236563835
H       -2.9579944028   -5.7714350441   -2.3788029260
H       -1.9378971403   -6.7014536638   -1.2649158803
H        1.2171066217   -0.2705430380   -1.1705492247
45   

C       -2.9899008865   -1.2519585545   -0.8589840603
C       -2.0435075080   -0.1886182086   -0.4924636212
C       -0.9195340907   -0.7037837493    0.1279923744
C       -4.2836370602   -1.1116885429   -1.5204209506
C       -2.5528555409   -2.4907816563   -0.5034705877
C       -4.5594962228   -3.4741446995   -1.3884602454
C       -7.3797965378   -1.9313141983   -1.2037020041
C       -7.7810164913   -0.7606775121   -0.6586433069
C       -2.2864979415    1.2737422653   -0.7830705305
C       -7.5627591681   -0.4541455488    0.8034938741
C       -8.1040367402    0.4068948417   -1.5584691456
C       -0.4628880793   -5.5484858322   -3.1980529805
C        0.2703606202    0.0403306246    0.6690293321
C       -6.3914154749   -2.1092003013   -2.3367333142
C       -2.8489802207   -4.9656192278   -0.3907342526
C       -2.2130105510   -5.6926669677   -1.5758200339
N       -5.0569739929   -2.2340868575   -1.7552210501
N       -3.3225559669   -3.6304742457   -0.7654294852
O       -4.6872363707   -0.0093007733   -1.8660541798
O       -5.2391887111   -4.4716556682   -1.6009949845
O        1.3983007134   -0.2653019622   -0.1485758552
O       -1.0523126442   -4.9837284941   -2.0241563677
S       -0.9798929324   -2.4586188936    0.2846369902
H       -7.4117277619   -2.7908463884   -0.5429335655
H       -3.1177780256    1.6386954058   -0.1722642625
H       -1.4072313010    1.8875622836   -0.5806450316
H       -2.5441202950    1.4078709542   -1.8377348333
H       -6.4925273565   -0.4725051259    1.0307550963
H       -7.9564417965    0.5347788424    1.0573764848
H       -8.0689143858   -1.1995018931    1.4239478572
H       -9.0853843877    0.8147654099   -1.2987886794
H       -7.3522209862    1.1930782815   -1.4349144090
H       -8.1293257902    0.1115018271   -2.6110878620
H        0.4456763219   -4.9954987991   -3.4548924272
H       -1.1581464524   -5.4876650662   -4.0413007821
H       -0.1958464594   -6.5963435717   -3.0276217095
H        0.0990370216    1.1191452443    0.6735732875
H        0.4646832964   -0.2703071322    1.7004480296
H       -6.4310432895   -1.2612695820   -3.0282799129
H       -6.6534959851   -2.9950429893   -2.9259153461
H       -3.6877133749   -5.5612762929   -0.0153372801
H       -2.1269501003   -4.9096819171    0.4282679494
H       -2.9427391720   -5.7804425587   -2.3878724929
H       -1.9269353136   -6.7018718225   -1.2630257379
H        1.1516285990   -0.2361746836   -1.0903212791
45   

C       -3.0263889277   -1.2598876765   -0.8633677813
C       -2.0901132102   -0.1929467133   -0.4817494028
C       -0.9731763191   -0.7039209157    0.1549496098
C       -4.3107571520   -1.1246697704   -1.5441483923
C       -2.5893367163   -2.4971156579   -0.5022044013
C       -4.5795776910   -3.4881382326   -1.4141787149
C       -7.4066680982   -1.9621556499   -1.2489227611
C       -7.7223388319   -0.8104249921   -0.6036181701
C       -2.3371649713    1.2683761950   -0.7738783123
C       -7.2294656337   -0.5097572625    0.7919206408
C       -8.1084301005    0.3878013715   -1.4392956267
C       -0.4574707512   -5.5391875408   -3.1805813702
C        0.2058859059    0.0436667707    0.7149608536
C       -6.4077186245   -2.1315629033   -2.3786375390
C       -2.8753755519   -4.9736645950   -0.3972648539
C       -2.2227967270   -5.6961178375   -1.5761344571
N       -5.0766983816   -2.2500839929   -1.7881609527
N       -3.3501647055   -3.6399256128   -0.7756501700
O       -4.7134602673   -0.0241113143   -1.8968069187
O       -5.2530946850   -4.4882532340   -1.6342767260
O        1.3541724832   -0.2816998641   -0.0659340378
O       -1.0603624700   -4.9812001499   -2.0102833697
S       -1.0284435843   -2.4591954642    0.3089700561
H       -7.4776458116   -2.8607547654   -0.6456835002
H       -3.1841380863    1.6256950475   -0.1803737814
H       -1.4673491992    1.8882974373   -0.5506604008
H       -2.5730344281    1.4030767169   -1.8335650454
H       -6.6261964912    0.4031392969    0.8007164441
H       -8.0792708775   -0.3796956646    1.4681518820
H       -6.6080648425   -1.3299332515    1.1642476415
H       -9.1461365332    0.6627103870   -1.2292380009
H       -7.4662851334    1.2435855483   -1.2083548561
H       -8.0229873945    0.1812386583   -2.5096604450
H        0.4514386321   -4.9818111458   -3.4264677189
H       -1.1447404116   -5.4776865182   -4.0303082602
H       -0.1881514057   -6.5866985188   -3.0116078209
H        0.0412022352    1.1232664852    0.6965505082
H        0.3704886044   -0.2504801269    1.7563440337
H       -6.4512193487   -1.2824408606   -3.0685804273
H       -6.6594621832   -3.0185555141   -2.9706223001
H       -3.7158633940   -5.5734426661   -0.0324766326
H       -2.1630418675   -4.9161052573    0.4300551521
H       -2.9429309949   -5.7860057453   -2.3964891698
H       -1.9356724263   -6.7045025792   -1.2616552603
H        1.1346496913   -0.2633820686   -1.0146596679
45   

C       -3.0643236909   -1.2258673174   -0.9199176324
C       -2.1359025188   -0.1561747102   -0.5272783964
C       -1.0378542724   -0.6610745112    0.1463403821
C       -4.3299571399   -1.0970644146   -1.6364964132
C       -2.6402816407   -2.4590705599   -0.5303355519
C       -4.6087188637   -3.4577808138   -1.4791469005
C       -7.4436038697   -1.9519709347   -1.3959383502
C       -7.6799501561   -0.8742902265   -0.5961909169
C       -2.3731374002    1.3012922357   -0.8451851952
C       -6.9845601792   -0.6726639680    0.7301888047
C       -8.1584338993    0.3834121111   -1.2817506559
C       -0.4491780190   -5.5335116005   -3.1210559360
C        0.1280402653    0.0903615533    0.7286899232
C       -6.4111635456   -2.1132073830   -2.5014135988
C       -2.9329450360   -4.9340392571   -0.4034658985
C       -2.2528958348   -5.6705609253   -1.5579458854
N       -5.0927198473   -2.2237954510   -1.8826744906
N       -3.3961381885   -3.6039168001   -0.8083024006
O       -4.7222401012   -0.0007020748   -2.0130996362
O       -5.2786169812   -4.4595695969   -1.7033550164
O        1.3026348265   -0.2747510334    0.0066361445
O       -1.0790228693   -4.9621544289   -1.9715642657
S       -1.1019310875   -2.4140345432    0.3221003208
H       -7.6265333444   -2.9066640398   -0.9148913474
H       -3.2390837854    1.6654756800   -0.2841329954
H       -1.5114430146    1.9245454037   -0.6010430388
H       -2.5745076072    1.4224932678   -1.9136044894
H       -6.3381582820    0.2098286251    0.6990903101
H       -7.7251712440   -0.5437581209    1.5247152246
H       -6.3624521800   -1.5402822379    0.9702886649
H       -9.2245068809    0.5284538008   -1.0848919726
H       -7.6144683531    1.2604431415   -0.9174781648
H       -8.0109461662    0.3261209458   -2.3645077135
H        0.4668601807   -4.9807567334   -3.3503624758
H       -1.1153527678   -5.4791569498   -3.9878990792
H       -0.1866793239   -6.5798496158   -2.9349337235
H       -0.0203559844    1.1707029839    0.6684717594
H        0.2466046495   -0.1714716489    1.7848617551
H       -6.4547133544   -1.2612101173   -3.1886823848
H       -6.6392373955   -3.0023200062   -3.0998575631
H       -3.7831092600   -5.5285892776   -0.0527877242
H       -2.2410200123   -4.8683549665    0.4403866663
H       -2.9529038100   -5.7686980864   -2.3946216714
H       -1.9751859402   -6.6757800561   -1.2253754129
H        1.1233097934   -0.2807198712   -0.9506717765
45   

C       -2.7033823668   -1.0284418282   -0.3954585294
C       -1.6190023979   -0.0394704419   -0.3160820338
C       -0.4350791052   -0.6193456594    0.1036167693
C       -4.0891784780   -0.8087802730   -0.7993681206
C       -2.3016269559   -2.2792664478   -0.0399968454
C       -4.5155167825   -3.1243005780   -0.4395068074
C       -7.2667905037   -1.3441393991   -0.1030883946
C       -8.4009235497   -0.5940718594   -0.1939306861
C       -1.8028597232    1.4174745458   -0.6698467685
C       -9.7661127209   -1.1833961121   -0.4744361635
C       -8.2239236195    0.8720066679   -0.5086413832
C       -1.0054726194   -5.6637661170   -2.8638072325
C        0.8979855325    0.0393696883    0.3306542171
C       -6.3512485593   -1.6852881003   -1.2584106772
C       -2.7558902279   -4.7099990396    0.2938905364
C       -2.4286291171   -5.5445301618   -0.9457508941
N       -4.9789102112   -1.8670467722   -0.7942259533
N       -3.1950222090   -3.3569014415   -0.0586846206
O       -4.4640516818    0.2991727430   -1.1593403382
O       -5.2955940141   -4.0697815098   -0.4560353885
O        1.8062599382   -0.4331293579   -0.6624078804
O       -1.3319921559   -4.9633478996   -1.6604203780
S       -0.6019292545   -2.3474073925    0.4100509872
H       -7.3551680199   -2.1964651365    0.5617514160
H       -2.4882206111    1.8869484837    0.0422797191
H       -0.8610299424    1.9683863532   -0.6623131224
H       -2.2294265232    1.5064227724   -1.6733653253
H      -10.5079857988   -0.3992487265   -0.6538511547
H       -9.7201926358   -1.8310790137   -1.3550665811
H      -10.0959050407   -1.7794189239    0.3815914075
H       -8.8924463095    1.1778680439   -1.3195136536
H       -8.4472877394    1.4724059726    0.3777149454
H       -7.1968142397    1.0879983496   -0.8209640731
H       -0.1193379495   -5.2138783673   -3.3217358666
H       -1.8341856274   -5.6046178642   -3.5764397383
H       -0.7898785332   -6.7157216515   -2.6507408439
H        0.8218344834    1.1274222648    0.2729293577
H        1.2723680693   -0.2158671917    1.3270296452
H       -6.4066728707   -0.9027547906   -2.0234773320
H       -6.7131502270   -2.5970708553   -1.7465218193
H       -3.5434179601   -5.2138984788    0.8639816088
H       -1.8810616599   -4.6787673446    0.9487985146
H       -3.3112159898   -5.6067999610   -1.5912756197
H       -2.1637387696   -6.5591897343   -0.6316828072
H        1.3777642641   -0.4402612576   -1.5369731426
45   

C       -2.7104601914   -1.0483723667   -0.4347940809
C       -1.6316957669   -0.0548177741   -0.3372857621
C       -0.4514913492   -0.6304868259    0.0984386838
C       -4.0903540382   -0.8341402129   -0.8611567962
C       -2.3088197873   -2.2980412873   -0.0755667150
C       -4.5138980982   -3.1507035960   -0.5068478434
C       -7.2821257198   -1.4247477250   -0.2036384064
C       -8.3521866338   -0.5912627550   -0.2664945321
C       -1.8181077483    1.4025096623   -0.6882544091
C       -9.7753604488   -1.0971456640   -0.3293707029
C       -8.1216885320    0.8354901252   -0.7047042506
C       -0.9683826768   -5.6644999324   -2.8985854348
C        0.8753519244    0.0332312841    0.3467070022
C       -6.3444621395   -1.7197311094   -1.3495399044
C       -2.7572114943   -4.7316781824    0.2437842058
C       -2.4118131059   -5.5603665379   -0.9948851680
N       -4.9775116917   -1.8946908651   -0.8661650829
N       -3.1975224223   -3.3791139557   -0.1093536059
O       -4.4605110689    0.2707597456   -1.2346859956
O       -5.2895781526   -4.0995808890   -0.5362483878
O        1.8008028308   -0.4348058209   -0.6325037411
O       -1.3091954509   -4.9721575438   -1.6944725347
S       -0.6155270951   -2.3599028244    0.3989408386
H       -7.4312120782   -2.3057737427    0.4112236628
H       -2.5270656915    1.8621501241    0.0070011661
H       -0.8820138558    1.9618358579   -0.6508627004
H       -2.2176256731    1.4931454147   -1.7027085494
H      -10.4825744633   -0.2689814427   -0.4369939568
H       -9.8945234300   -1.7734449980   -1.1811539012
H      -10.0186702828   -1.6414038241    0.5879506322
H       -8.7821728131    1.0906124405   -1.5393614813
H       -8.3277348365    1.5155264499    0.1267922258
H       -7.0883749860    0.9964892432   -1.0263564917
H       -0.0786731908   -5.2096909011   -3.3445655052
H       -1.7897703395   -5.6031113008   -3.6194666830
H       -0.7523794037   -6.7171906555   -2.6896007728
H        0.7961544056    1.1210160114    0.2886384356
H        1.2352026552   -0.2214472829    1.3485634008
H       -6.3988830314   -0.9264467589   -2.1030687162
H       -6.6822377970   -2.6274690535   -1.8619048287
H       -3.5494798640   -5.2407013471    0.8026341749
H       -1.8903542507   -4.6993594054    0.9091463743
H       -3.2864525165   -5.6239617406   -1.6510146817
H       -2.1464203636   -6.5750592784   -0.6813645102
H        1.3863567190   -0.4416030958   -1.5138209216
45   

C       -2.7442886005   -1.0449473619   -0.4306012392
C       -1.6735555482   -0.0444747939   -0.3154789340
C       -0.5006887021   -0.6102397648    0.1518921911
C       -4.1136459376   -0.8421086052   -0.8943514825
C       -2.3450139881   -2.2893030669   -0.0516229606
C       -4.5359092626   -3.1562040366   -0.5261515812
C       -7.3268703128   -1.5100313932   -0.2841902109
C       -8.3277996070   -0.6008733767   -0.2881335321
C       -1.8614522877    1.4097433327   -0.6787097362
C       -9.7770317908   -0.9995108564   -0.1330395164
C       -8.0566928549    0.7992672815   -0.7826662164
C       -0.9333358356   -5.6570386956   -2.8309380662
C        0.8167057502    0.0623639695    0.4256875113
C       -6.3571727435   -1.7427652317   -1.4155981647
C       -2.7876514089   -4.7230142021    0.2725412721
C       -2.4114153793   -5.5564330865   -0.9538742399
N       -4.9981112826   -1.9051824300   -0.9045605299
N       -3.2274329750   -3.3750080795   -0.0979459463
O       -4.4743359314    0.2548518094   -1.2985684701
O       -5.3052757766   -4.1098410172   -0.5678388668
O        1.7673205685   -0.4094142369   -0.5272536503
O       -1.2977543431   -4.9654366146   -1.6333543940
S       -0.6628429959   -2.3381279664    0.4624986832
H       -7.5223904222   -2.4146957747    0.2815019279
H       -2.6039417892    1.8632370335   -0.0151142125
H       -0.9346671929    1.9805065647   -0.6031869044
H       -2.2196834589    1.4926367303   -1.7091390555
H      -10.4255673408   -0.1180568066   -0.1269346630
H      -10.0764155822   -1.6489215431   -0.9611088714
H       -9.9190522479   -1.5400727069    0.8075151606
H       -8.5972801910    0.9792670761   -1.7170987469
H       -8.3917785986    1.5270431262   -0.0377878050
H       -6.9904964496    0.9666033215   -0.9581505934
H       -0.0391604511   -5.1974954037   -3.2629101315
H       -1.7431739612   -5.6013081403   -3.5652312691
H       -0.7146543769   -6.7081835864   -2.6170587341
H        0.7340298888    1.1491741426    0.3560617948
H        1.1539722556   -0.1817895299    1.4379627245
H       -6.4133471585   -0.9296966287   -2.1474071749
H       -6.6593155328   -2.6426041675   -1.9630023752
H       -3.5889755662   -5.2331456562    0.8172769694
H       -1.9353205428   -4.6821303896    0.9559557263
H       -3.2717338774   -5.6288658580   -1.6277858910
H       -2.1466275045   -6.5677564102   -0.6292043933
H        1.3743218727   -0.4244382464   -1.4182504168
45   

C       -2.7081146318   -1.1038145602   -0.5708469472
C       -1.6417206480   -0.1034222420   -0.4203701614
C       -0.4801193585   -0.6722914519    0.0706535708
C       -4.0664034527   -0.8977900727   -1.0646890800
C       -2.3167794966   -2.3512355985   -0.1935189815
C       -4.4951290836   -3.2154649272   -0.7271255533
C       -7.2849762164   -1.6028919288   -0.5073886239
C       -8.2142093244   -0.6281207268   -0.4328694689
C       -1.8215325923    1.3538700035   -0.7752776089
C       -9.6361699694   -0.9280679397   -0.0197569185
C       -7.9083041281    0.7456673651   -0.9771071039
C       -0.8510989026   -5.6920390674   -2.9762247170
C        0.8289394346   -0.0005059532    0.3833531801
C       -6.3013169311   -1.7928653341   -1.6318915110
C       -2.7651130010   -4.7879919048    0.0991385849
C       -2.3628233249   -5.6117765704   -1.1254123468
N       -4.9497284539   -1.9611470393   -1.1035209756
N       -3.1968079327   -3.4371780296   -0.2705038486
O       -4.4185257477    0.2025357070   -1.4675168797
O       -5.2623653267   -4.1692733194   -0.7959519543
O        1.8009374810   -0.4541007084   -0.5567234147
O       -1.2353121350   -5.0151129633   -1.7764724924
S       -0.6475789087   -2.4031607102    0.3610334768
H       -7.5041976858   -2.5168767980    0.0341770586
H       -2.5759935465    1.8027580011   -0.1221386996
H       -0.8956069232    1.9227921185   -0.6780012541
H       -2.1600052853    1.4456299502   -1.8116070588
H      -10.1887859473   -0.0059853550    0.1838360356
H      -10.1483245969   -1.4734091902   -0.8181017618
H       -9.6452665656   -1.5409012291    0.8867121339
H       -8.1195753134    0.7800117926   -2.0501221508
H       -8.5184175728    1.5036759409   -0.4771660752
H       -6.8574582209    1.0012008894   -0.8137705337
H        0.0501559179   -5.2274782300   -3.3876081892
H       -1.6486008078   -5.6271392162   -3.7231693003
H       -0.6361487802   -6.7457690035   -2.7715052234
H        0.7439678027    1.0870636591    0.3295786450
H        1.1454365899   -0.2599337243    1.3985343949
H       -6.3515683932   -0.9571772906   -2.3380442575
H       -6.5879157538   -2.6779369840   -2.2108285129
H       -3.5779973960   -5.3020712040    0.6226277368
H       -1.9275412390   -4.7526257917    0.8008514575
H       -3.2087755296   -5.6792029643   -1.8177871787
H       -2.1044473424   -6.6255163485   -0.8031558367
H        1.4262803371   -0.4577445596   -1.4557023536
45   

C       -2.7144174275   -1.1471287572   -0.6605072231
C       -1.6590150043   -0.1404449658   -0.4776487061
C       -0.5063867656   -0.7042828504    0.0394875863
C       -4.0616988180   -0.9471145785   -1.1858372420
C       -2.3241266001   -2.3940606056   -0.2805787130
C       -4.4820611419   -3.2700024843   -0.8750271880
C       -7.2827707336   -1.7144298619   -0.6877526828
C       -8.1476402178   -0.6959022256   -0.5233769872
C       -1.8384762084    1.3175483779   -0.8299612301
C       -9.4861390029   -0.9135484976    0.1424298470
C       -7.9013610667    0.6378435953   -1.1844884895
C       -0.7784048269   -5.7054992508   -3.0506865144
C        0.7894806261   -0.0250684681    0.3887147019
C       -6.2804994148   -1.8518735650   -1.8024154655
C       -2.7636490970   -4.8351226909   -0.0117747814
C       -2.3271318165   -5.6506087245   -1.2300153925
N       -4.9364365260   -2.0162309706   -1.2533893039
N       -3.1945130437   -3.4853807693   -0.3860254257
O       -4.4116201094    0.1539221804   -1.5884756356
O       -5.2400918568   -4.2288844099   -0.9703670833
O        1.7851253328   -0.4576975515   -0.5363527148
O       -1.1885195659   -5.0434035396   -1.8512842045
S       -0.6691183481   -2.4378815401    0.3157688662
H       -7.4839428981   -2.6306064750   -0.1429396650
H       -2.6065876197    1.7607155929   -0.1889412511
H       -0.9166029436    1.8895919209   -0.7139194424
H       -2.1581319200    1.4123403927   -1.8719667724
H       -9.4774904268   -0.4784164903    1.1461652027
H      -10.2813258299   -0.4385737427   -0.4402534666
H       -9.7142749067   -1.9806770756    0.2251936608
H       -8.1142722677    0.5761149792   -2.2557408969
H       -8.5468127663    1.4054436478   -0.7469537290
H       -6.8637524936    0.9523780754   -1.0416180288
H        0.1277962935   -5.2318683985   -3.4402628767
H       -1.5622047877   -5.6368882759   -3.8116810763
H       -0.5616613128   -6.7601785554   -2.8529096859
H        0.6953474577    1.0623264325    0.3471595749
H        1.0868368306   -0.2947378617    1.4070080690
H       -6.3285261588   -0.9986737454   -2.4867153668
H       -6.5426099012   -2.7240878288   -2.4116684594
H       -3.5858072736   -5.3563384196    0.4897202700
H       -1.9433559275   -4.7979267078    0.7099658081
H       -3.1560846865   -5.7203643167   -1.9424404717
H       -2.0696209901   -6.6640943668   -0.9063267066
H        1.4288602201   -0.4550356183   -1.4427780761
45   

C       -2.7636283444   -1.1331937461   -0.6899082153
C       -1.7150010770   -0.1237189566   -0.4845435160
C       -0.5802604876   -0.6805230446    0.0778104461
C       -4.0913582123   -0.9407302653   -1.2651046580
C       -2.3869866494   -2.3747484344   -0.2803282007
C       -4.5258785200   -3.2573885154   -0.9316297397
C       -7.3275325407   -1.7459217937   -0.8162425047
C       -8.1083718024   -0.6834408693   -0.5526333103
C       -1.8847286556    1.3302333195   -0.8579806921
C       -9.3150390816   -0.8215869331    0.3455696523
C       -7.8787829603    0.6452125248   -1.2305093789
C       -0.7604450422   -5.7107336073   -2.9649041554
C        0.7035446579    0.0031709376    0.4613336520
C       -6.3021051296   -1.8484510757   -1.9141510673
C       -2.8360355100   -4.8120814999    0.0038647937
C       -2.3611258185   -5.6414316225   -1.1902813067
N       -4.9681141815   -2.0080436904   -1.3382507188
N       -3.2541843827   -3.4670584707   -0.4003190458
O       -4.4203374314    0.1515180260   -1.7069367001
O       -5.2806096951   -4.2175641866   -1.0396982478
O        1.7293355749   -0.4421568956   -0.4238785198
O       -1.2032905662   -5.0407872261   -1.7816682555
S       -0.7526981043   -2.4104275547    0.3712106295
H       -7.5413019721   -2.6720081390   -0.2933587911
H       -2.6865530736    1.7740321814   -0.2601061678
H       -0.9736969668    1.9094443362   -0.6998982709
H       -2.1525792876    1.4140842423   -1.9154257831
H       -9.0883369893   -0.4188663440    1.3372553535
H      -10.1642346073   -0.2719349360   -0.0718687740
H       -9.6075414252   -1.8708263857    0.4516306094
H       -8.1735693296    0.5905305146   -2.2824787310
H       -8.4690996109    1.4289698571   -0.7463251194
H       -6.8270644230    0.9355502272   -1.1654937561
H        0.1561621896   -5.2395772019   -3.3325057590
H       -1.5229853647   -5.6472519183   -3.7476383562
H       -0.5493749429   -6.7640251433   -2.7540875394
H        0.6119291263    1.0899089275    0.4018093086
H        0.9663473968   -0.2527619881    1.4925917630
H       -6.3482494236   -0.9826356027   -2.5824657621
H       -6.5396131660   -2.7122506860   -2.5451030801
H       -3.6739237473   -5.3274026632    0.4850047509
H       -2.0391313934   -4.7661814458    0.7508696986
H       -3.1670976961   -5.7196084693   -1.9277723877
H       -2.1139303756   -6.6510008913   -0.8469642325
H        1.4038533215   -0.4508666677   -1.3417839439
45   

C       -2.7799838121   -1.1833956898   -0.7853772428
C       -1.7499412348   -0.1633796148   -0.5418533440
C       -0.6257479559   -0.7113116904    0.0495894012
C       -4.0907568325   -1.0022121922   -1.4011811202
C       -2.4022013566   -2.4231431327   -0.3719499525
C       -4.5149157240   -3.3225018483   -1.0837014782
C       -7.3203996105   -1.8454659142   -0.9846058824
C       -8.0217109775   -0.7610218053   -0.6115480515
C       -1.9285011963    1.2920375580   -0.9054816786
C       -9.0249901880   -0.8520178598    0.5144042567
C       -7.8545993825    0.5666859285   -1.3097988894
C       -0.6659257615   -5.7201109902   -3.0297979450
C        0.6382656248   -0.0160015871    0.4755850328
C       -6.2898281333   -1.9207724633   -2.0803237316
C       -2.8337849252   -4.8663643099   -0.1147696459
C       -2.3162888376   -5.6823573989   -1.3002087094
N       -4.9589115303   -2.0750827695   -1.4944768740
N       -3.2544703060   -3.5233440498   -0.5227530269
O       -4.4102952957    0.0849235900   -1.8616489870
O       -5.2582192191   -4.2888042871   -1.2139063077
O        1.6928795904   -0.4382051528   -0.3867309969
O       -1.1483061989   -5.0653748590   -1.8535821224
S       -0.7871248083   -2.4450532918    0.3265219286
H       -7.5203591656   -2.7792927517   -0.4700506765
H       -2.7666561691    1.7133313594   -0.3420986963
H       -1.0379715021    1.8861653799   -0.6948838360
H       -2.1465800901    1.3844996476   -1.9735946818
H       -8.5723327116   -0.4967116334    1.4449746306
H       -9.9030037859   -0.2375814958    0.2928481734
H       -9.3598232768   -1.8839445301    0.6584087897
H       -8.2893672717    0.5233856902   -2.3125190644
H       -8.3567109791    1.3607050899   -0.7489998640
H       -6.7992818449    0.8375898653   -1.3866792172
H        0.2550322671   -5.2357289544   -3.3681751905
H       -1.4074861140   -5.6581842808   -3.8325547484
H       -0.4489237778   -6.7727880812   -2.8220022315
H        0.5345204900    1.0701083017    0.4256121861
H        0.8765690118   -0.2804813668    1.5106329553
H       -6.3420501919   -1.0433165652   -2.7329162621
H       -6.5142660953   -2.7766116881   -2.7267172372
H       -3.6793040189   -5.3937530750    0.3391710048
H       -2.0589197546   -4.8168284889    0.6548579586
H       -3.0999878635   -5.7634622048   -2.0610285874
H       -2.0683440884   -6.6916908684   -0.9567696543
H        1.3920584236   -0.4402858631   -1.3130648620
