44

C      3.82079   -3.66910    0.18615
C      1.25837    2.55529    2.92307
C      2.02345    1.38059    3.12433
C      0.30315    2.66621    1.90671
C      0.88261    0.38020    1.29043
C      1.83878    0.27200    2.30183
C      0.54085   -0.58399    0.29450
C      0.11986    1.55003    1.07939
C     -0.41923    0.00291   -0.49854
C      2.00017   -1.95376    3.45866
C      1.99306   -3.28895    3.36765
C     -0.26780   -5.80631    4.72061
C      1.21268   -1.92466    0.33743
C      2.57159   -4.02311    2.18672
C      2.58160   -1.04870    2.39342
C      2.59724   -1.78162    1.02609
C     -1.36547   -6.56854    4.01854
C     -1.18822   -0.52489   -1.66291
C      1.41791   -4.14934    4.45205
N      4.36389   -4.16175   -0.72643
N     -0.70399    1.28114   -0.00343
N      3.23248   -3.10086    1.24464
O      0.04972   -5.93033    5.88694
O     -1.40624    0.55751   -2.58231
O      0.33938   -4.93712    3.87139
H      1.42559    3.40635    3.57792
H      2.76445    1.35915    3.92077
H     -0.26136    3.58541    1.77354
H      1.56961   -1.46994    4.33323
H      0.60204   -2.63743    0.90476
H      1.36445   -2.35243   -0.65965
H      3.32327   -4.74237    2.53132
H      1.78145   -4.60347    1.69068
H      3.62789   -0.84501    2.65640
H      3.25646   -1.22641    0.35436
H     -2.11298   -5.87136    3.62902
H     -1.83150   -7.26082    4.71899
H     -0.95408   -7.11859    3.16718
H     -0.62155   -1.34137   -2.12919
H     -2.15543   -0.93088   -1.32787
H      1.02191   -3.54790    5.27301
H      2.15958   -4.84226    4.86383
H     -1.21340    1.96334   -0.54973
H     -2.02355    0.25572   -3.26654
