27

C      0.82280    1.29020    1.50658
C      0.56489    1.98498    2.70396
C     -1.38342    2.77104   -1.06498
C     -0.91074    4.11405   -1.13633
C     -1.31790    0.10291    1.64733
C     -0.09176    0.36240    0.99643
C     -0.64177    1.72989    3.32692
C     -1.56014    0.81577    2.80440
C     -0.53065    1.88329   -1.67161
C      0.29803    4.19495   -1.78216
C     -2.33490    1.53541    4.77717
N      0.19499   -0.33867   -0.21688
O      0.07759   -0.45189   -2.72581
O     -2.08115   -0.17664   -1.35485
O     -1.15571    2.29975    4.47160
O     -2.68049    0.77934    3.60429
S      0.88317    2.65176   -2.33796
S     -0.67647    0.11964   -1.61203
Cl     1.20065    5.63306   -2.10091
H      1.74648    1.48379    0.96773
H      1.27231    2.70117    3.10872
H     -2.30517    2.46028   -0.58635
H     -1.43204    4.97614   -0.73624
H     -2.02431   -0.61133    1.24109
H     -2.11633    0.84480    5.60264
H     -3.15272    2.21526    5.02354
H      1.18553   -0.37067   -0.45289
