27

C     -0.00256   -5.04850   -6.27991
C      2.49452   -0.69680    0.33979
C      2.94994   -1.97424    2.34230
C      1.95523    0.33043    1.11525
C      2.40050   -0.96195    3.12703
C      0.65555   -4.50070   -5.13777
C      2.99092   -1.87121    0.93922
C      2.05829   -4.58622   -4.97763
C      2.67827   -4.04482   -3.84714
C      1.90215    0.18489    2.50328
C      1.83959   -3.46726   -2.85989
C     -0.05064   -3.82915   -4.12123
C      3.61021   -2.97456    0.17860
N     -0.54296   -5.49529   -7.21043
N      0.51267   -3.35189   -3.03366
N      3.33570   -3.44159   -0.99114
N      2.28314   -2.89623   -1.68191
Cl     2.98805   -5.34184   -6.22258
Cl     4.40786   -4.00748   -3.72713
Cl    -1.77356   -3.61411   -4.27028
Br     1.15177    1.58366    3.56969
H      2.56756   -0.55756   -0.73406
H      3.34752   -2.86352    2.82540
H      1.58658    1.23582    0.64432
H      2.36467   -1.05922    4.20711
H      4.41634   -3.51237    0.67607
H      1.51699   -2.47796   -1.15113
