29

C      4.48360   -3.77432   -7.91818
C      2.64190    1.52003   -4.99251
C      3.08179    0.60281   -4.02023
C      5.38319   -3.91150   -6.85573
C      3.15157   -4.14965   -7.75513
C      1.86614    1.12103   -6.08872
C      2.75963   -0.76100   -4.10499
C      4.94918   -4.42870   -5.63278
C      2.68948   -4.67198   -6.53337
C      1.53868   -0.23439   -6.18508
C      1.98804   -1.12349   -5.19480
C      3.61424   -4.80511   -5.48723
C      0.85000   -2.17888   -6.70849
C      1.28459   -5.12011   -6.39608
N      0.81583   -0.95362   -7.14854
N      0.19502   -4.54941   -6.77747
N      0.26033   -3.26562   -7.32119
O      1.52099   -2.38634   -5.53292
Br     3.03567   -5.44749   -3.77353
H      4.81833   -3.37204   -8.86996
H      2.91346    2.56709   -4.88898
H      3.68193    0.95513   -3.18619
H      6.42153   -3.61380   -6.97248
H      2.44938   -4.03774   -8.57504
H      1.53178    1.83158   -6.83857
H      3.08953   -1.48453   -3.36609
H      5.63642   -4.53083   -4.79927
H      1.12197   -6.09970   -5.94965
H     -0.61146   -3.01881   -7.77524
