20

C     -0.89477    3.06443   -1.05992
C      2.08173   -0.81867   -0.05110
C      1.77241   -1.29043    2.69192
C      0.99336   -0.25711    0.62286
C      2.99821   -1.60338    0.65021
C      0.86129   -0.51196    2.00007
C      2.86244   -1.84844    2.01188
C     -1.01081    1.74450   -1.69490
C      0.14849    0.81627   -1.33445
N     -0.78577    4.11483   -0.57465
O      0.03381    0.52279    0.05503
F      4.03507   -2.12738   -0.03593
F     -0.18994    0.02191    2.65673
Br     4.13264   -2.92202    2.93628
H      2.24718   -0.66856   -1.11103
H      1.62960   -1.45712    3.75408
H     -1.95684    1.28557   -1.39271
H     -1.03673    1.88185   -2.78081
H      1.10941    1.29882   -1.54750
H      0.07214   -0.10576   -1.92474
