29

C      2.36372   -3.70593    2.42802
C     -4.64509    2.00997    1.64538
C      2.16107   -2.30433    2.47032
C     -2.77963    0.44668    1.47499
C     -3.67575    0.20891    2.51192
C      1.03335   -1.63245    2.04523
C      2.50402   -0.21922    2.83739
C     -1.56111   -0.27798    1.10908
C     -3.60564   -0.88944    3.52963
C      2.97972    1.13769    3.21044
C     -0.66986    0.30557    0.03920
N      2.46132   -4.86807    2.36661
N     -4.72092    1.10488    2.58335
N      3.08133   -1.36577    2.96268
N     -1.34510   -1.38970    1.74190
N     -0.11858   -2.04834    1.41663
O      1.22767   -0.30782    2.27075
S     -3.28835    1.86428    0.57921
H     -5.36743    2.80973    1.51894
H     -2.60866   -0.95059    3.97374
H     -4.35332   -0.70550    4.30339
H     -3.79430   -1.86353    3.06828
H      3.02356    1.79443    2.33529
H      2.31091    1.59873    3.94464
H      3.97752    1.05049    3.64139
H     -0.11537    1.16326    0.43056
H      0.04371   -0.43791   -0.31501
H     -1.26894    0.65103   -0.80824
H     -0.24973   -3.04824    1.55044
