17   

C        5.9158511719    0.1245306621   -0.8427809747
C        4.6764425716   -0.6282312984   -1.0436197808
C        5.9741664969    1.0500099228    0.1689283937
C        3.5816452153   -0.4470019345   -0.2372720023
C        4.8146061734    1.2604047503    1.0111252344
C        2.2659951024   -1.1421536125   -0.4086026817
C        2.1075578493   -2.3280518860   -1.3498011860
N        3.6763753543    0.5186327162    0.7948110537
O        4.8242417652    2.0843695891    1.9083941163
O        1.2844112229   -0.7092932295    0.1842437942
H        6.7741290965   -0.0417725489   -1.4858074884
H        4.6406115475   -1.3400623734   -1.8607774365
H        6.8598114494    1.6392631121    0.3623944334
H        2.8164608331   -3.1141606369   -1.0769544968
H        2.2903253917   -2.0123011872   -2.3800421595
H        1.0918897698   -2.7272480750   -1.2764807328
H        2.8787394287    0.7381295871    1.3833092631
17   

C        5.9079728727    0.1528523597   -0.8596015255
C        4.6589055294   -0.5745044709   -1.0908287193
C        5.9890228380    1.0090057544    0.2099175778
C        3.5834660551   -0.4497416214   -0.2487894074
C        4.8432017463    1.1730730146    1.0808901405
C        2.2471792405   -1.0928431639   -0.4736933631
C        2.1024820669   -2.3407240180   -1.3332643138
N        3.6987443319    0.4483734964    0.8404043499
O        4.8686987042    1.9446094233    2.0233135683
O        1.2419971995   -0.5386245452   -0.0465966649
H        6.7539923049    0.0251123677   -1.5272168436
H        4.5971855189   -1.2172899572   -1.9618548558
H        6.8814182204    1.5797595181    0.4264396045
H        2.7448354614   -3.1339394481   -0.9417429423
H        2.3838262517   -2.1193102303   -2.3656612580
H        1.0646187762   -2.6854218493   -1.3154344895
H        2.9024929832    0.6663487434    1.4308772088
17   

C        5.8956750069    0.2012345839   -0.9323489770
C        4.6328663803   -0.5018082196   -1.1635495827
C        6.0320983039    0.9650297566    0.1996818767
C        3.6045282893   -0.4538555016   -0.2576512753
C        4.9292285624    1.0587219207    1.1343205175
C        2.2465296070   -1.0559567065   -0.4933323175
C        2.0801056250   -2.3588979443   -1.2641950138
N        3.7723175719    0.3541673143    0.8932809761
O        5.0007108385    1.7539085447    2.1321455604
O        1.2512824461   -0.4054407909   -0.2061265544
H        6.7073684817    0.1300870228   -1.6491941039
H        4.5223844032   -1.0566419016   -2.0881576774
H        6.9362866818    1.5158099628    0.4189849078
H        2.4655897619   -3.1878924762   -0.6647975713
H        2.6183610749   -2.3174683191   -2.2133189507
H        1.0206053814   -2.5351514789   -1.4707458566
H        3.0021048334    0.5467738346    1.5249551626
17   

C        5.8835995962    0.2582899187   -0.9781755726
C        4.6132479791   -0.4209492860   -1.2363174634
C        6.0403520904    0.9451027192    0.1999011296
C        3.6013425379   -0.4282471819   -0.3126142550
C        4.9507236495    0.9836798927    1.1544535648
C        2.2352875803   -1.0068648768   -0.5900788114
C        2.0829504205   -2.3860208802   -1.2178525381
N        3.7851108444    0.3038414511    0.8852494882
O        5.0406194262    1.6094389522    2.1957738763
O        1.2549137168   -0.2830536710   -0.5134046149
H        6.6840296287    0.2309604346   -1.7105221058
H        4.4775996461   -0.9081898262   -2.1955127455
H        6.9508599187    1.4757539283    0.4415552773
H        2.1349724814   -3.1464257738   -0.4342185348
H        2.8756510001   -2.5722478434   -1.9453496227
H        1.1155021215   -2.4613734706   -1.7221092840
H        3.0271592084    0.4675124527    1.5387174961
17   

C        5.8667926691    0.3797835401   -1.0421699604
C        4.5899982013   -0.2778304771   -1.3226331220
C        6.0452563417    0.9859051779    0.1765598785
C        3.5912782317   -0.3358162693   -0.3893739771
C        4.9706878493    0.9642897908    1.1489126330
C        2.2241240464   -0.9227172934   -0.6800819235
C        2.0872148176   -2.3889056668   -1.0620822339
N        3.7946127019    0.3145898389    0.8516255496
O        5.0829075317    1.5083518996    2.2330402588
O        1.2725267753   -0.1776292616   -0.8361910436
H        6.6554673647    0.3967887108   -1.7874576739
H        4.4330578547   -0.7154224789   -2.3028948368
H        6.9626903334    1.4943042967    0.4389898287
H        2.0415536572   -2.9963628311   -0.1544165602
H        2.9447589862   -2.7071219708   -1.6597619011
H        1.1718609460   -2.5416406494   -1.6404889541
H        3.0559808272    0.4289266137    1.5362626088
17   

C        5.8226439461    0.5267090245   -1.1289754286
C        4.5511075813   -0.1149899769   -1.4645072484
C        6.0047972997    1.0086823115    0.1435087576
C        3.5478537131   -0.2468975202   -0.5457813942
C        4.9392099024    0.8744835945    1.1166482948
C        2.2190782802   -0.9123643688   -0.8553202577
C        2.0182709608   -2.3859313988   -0.5403425716
N        3.7625120861    0.2562147969    0.7605495938
O        5.0612274364    1.2864661135    2.2564348179
O        1.2871430145   -0.2533364983   -1.2786800561
H        6.6064905508    0.6226354312   -1.8733910823
H        4.4000428750   -0.4877235624   -2.4723881824
H        6.9207794753    1.4942937768    0.4504465152
H        2.4318719802   -2.6153643328    0.4450963771
H        2.5294043990   -2.9925797288   -1.2923153459
H        0.9520661877   -2.6290488335   -0.5467239174
H        3.0420024253    0.2703870731    1.4728310891
17   

C        5.7974543706    0.6506434991   -1.1635228317
C        4.5367766902    0.0094347126   -1.5381775611
C        5.9881742623    1.0202470895    0.1447249501
C        3.5413465505   -0.2103252775   -0.6269185319
C        4.9418792323    0.7708399037    1.1158347846
C        2.2620803939   -0.9397178983   -0.9788140454
C        1.9374971608   -2.2635188461   -0.3017084954
N        3.7713893097    0.1649324299    0.7202642233
O        5.0751856447    1.0697483536    2.2890673678
O        1.3949635532   -0.3917246713   -1.6356852497
H        6.5680681019    0.8293624278   -1.9064997466
H        4.3862022156   -0.2948564009   -2.5691235285
H        6.8984037215    1.4962568419    0.4823063247
H        2.2958816881   -2.2634741473    0.7304892595
H        2.4259955312   -3.0759424911   -0.8461355348
H        0.8569557512   -2.4315764004   -0.3048339339
H        3.0721168319    0.0818689948    1.4484084175
17   

C        5.7613887407    0.7971909915   -1.1484619608
C        4.5144051611    0.1466355658   -1.5509756486
C        5.9762329400    1.0477261960    0.1842006258
C        3.5492855179   -0.1866642816   -0.6395001967
C        4.9682317431    0.6668500472    1.1535483098
C        2.3169975310   -0.9543562677   -1.0464371933
C        1.8920994646   -2.1856703995   -0.2585854792
N        3.8063485486    0.0616068670    0.7322015820
O        5.1270172333    0.8519657753    2.3468927282
O        1.5514733184   -0.5003881308   -1.8801609597
H        6.5041432007    1.0728276066   -1.8901877380
H        4.3485715555   -0.0744609183   -2.6009246938
H        6.8793199069    1.5221063294    0.5426200535
H        1.7520571954   -1.9334053574    0.7949928815
H        2.6624361729   -2.9566475473   -0.3452693619
H        0.9530402994   -2.5788957508   -0.6584030973
H        3.1428877458   -0.1355935277    1.4713423017
17   

C        5.7522528183    0.8922115581   -1.1352186853
C        4.5300369650    0.2111095919   -1.5620081477
C        5.9808440666    1.0607179587    0.2081112972
C        3.5998078717   -0.2308578743   -0.6592301219
C        5.0117897036    0.5645448335    1.1651435473
C        2.4004493313   -1.0193468075   -1.1057766625
C        1.8642268934   -2.1567535825   -0.2480153185
N        3.8709652615   -0.0650850924    0.7223852945
O        5.1850717292    0.6740462590    2.3657770070
O        1.7582558882   -0.6634972888   -2.0813397249
H        6.4662902567    1.2538348144   -1.8681580311
H        4.3548335183    0.0546333303   -2.6222562081
H        6.8673587280    1.5527691508    0.5836607497
H        1.4180749569   -1.7585217486    0.6664323769
H        2.6791053223   -2.8383116934    0.0108380597
H        1.1039706504   -2.7135297290   -0.8033457658
H        3.2407556138   -0.3591344870    1.4583070107
17   

C        5.7388598777    0.9568407017   -1.1176611654
C        4.5306667650    0.2565790621   -1.5532354355
C        6.0049358600    1.0442173732    0.2264686177
C        3.6525239341   -0.2904090779   -0.6549309504
C        5.0887313419    0.4445939816    1.1761531088
C        2.4539807443   -1.0677588776   -1.1180386673
C        1.8004592834   -2.1018455503   -0.2114480122
N        3.9607040174   -0.2028341304    0.7264066863
O        5.2935647570    0.4857566796    2.3761080062
O        1.9254363648   -0.7978429940   -2.1860423422
H        6.4128752146    1.3969536330   -1.8455484435
H        4.3259616648    0.1719735668   -2.6165003752
H        6.8828046764    1.5473427975    0.6075976462
H        1.3527328225   -1.6099440434    0.6555644366
H        2.5491652849   -2.8247399504    0.1236466787
H        1.0188473443   -2.6350551916   -0.7602926209
H        3.3724111890   -0.5784764211    1.4597898112
17   

C        5.7067620672    1.0081232840   -1.1239327547
C        4.5285726370    0.2636271177   -1.5683312255
C        5.9966910194    1.0499294019    0.2173443289
C        3.7054487251   -0.3787117590   -0.6805186374
C        5.1342581932    0.3600053107    1.1556980877
C        2.5197847827   -1.1718559100   -1.1493680730
C        1.7700798841   -2.0937962448   -0.1968816406
N        4.0334661632   -0.3276661376    0.6983735745
O        5.3584728662    0.3637563127    2.3528835986
O        2.1089247694   -1.0374983989   -2.2928067971
H        6.3400606099    1.5167436216   -1.8436950070
H        4.3054310579    0.2233301985   -2.6305158490
H        6.8541425018    1.5830057968    0.6041899474
H        1.3201942876   -1.5103608651    0.6104100068
H        2.4585971258   -2.8319900458    0.2228872001
H        0.9775057366   -2.6198370590   -0.7369080050
H        3.4866380079   -0.7728799736    1.4248321525
17   

C        5.6717645713    1.0639868697   -1.1340210341
C        4.5259456542    0.2763829557   -1.5887287339
C        5.9832865826    1.0694226713    0.2030782502
C        3.7611081864   -0.4517666124   -0.7150190569
C        5.1749326613    0.2996603229    1.1273708823
C        2.5868448279   -1.2571693550   -1.1917704492
C        1.7421274577   -2.0633438299   -0.2139985288
N        4.1046674453   -0.4287647373    0.6608391219
O        5.4152192157    0.2758497498    2.3212040580
O        2.2979993940   -1.2712463204   -2.3796747577
H        6.2640297425    1.6334474176   -1.8430737829
H        4.2820115415    0.2740339396   -2.6470954125
H        6.8181034452    1.6324856529    0.5968809907
H        1.2978104214   -1.3974643181    0.5303580622
H        2.3637062984   -2.8108474148    0.2857630744
H        0.9393077949   -2.5756262665   -0.7521274708
H        3.5985470949   -0.9344673028    1.3771265765
17   

C        5.6032420727    1.1133757996   -1.1463748772
C        4.4926711631    0.2748161843   -1.5973546048
C        5.9437593684    1.1026041474    0.1836746910
C        3.7972412227   -0.5256767852   -0.7290774165
C        5.1999539848    0.2661218852    1.1043645637
C        2.6353004122   -1.3529533395   -1.1978756225
C        1.7039868574   -2.0278805715   -0.1997276885
N        4.1628034750   -0.5106916527    0.6410716510
O        5.4626493135    0.2322630608    2.2932257096
O        2.4609359928   -1.5396935368   -2.3933267147
H        6.1464557211    1.7334603463   -1.8522292934
H        4.2182255983    0.2912786881   -2.6481048315
H        6.7541375865    1.7020733108    0.5747788749
H        1.2736542245   -1.2789985572    0.4704813222
H        2.2563215669   -2.7688185017    0.3837576012
H        0.8916256392   -2.5310805010   -0.7320569394
H        3.7051658974   -1.0663006604    1.3530038884
17   

C        6.2646332883   -0.1042235468   -0.0290624764
C        5.2016605974   -1.0996667743   -0.1668776868
C        5.9218079129    1.2224936197    0.0569830783
C        3.8791654531   -0.7420714901   -0.1881625351
C        4.5240733279    1.6032873302    0.0098950581
C        2.8031174041   -1.7669852026   -0.4035259428
C        1.4439371297   -1.3619512744   -0.9575652861
N        3.5532312378    0.6360916666   -0.1161321370
O        4.1764031999    2.7692063754    0.0673365546
O        2.9716906851   -2.9186865758   -0.0316716827
H        7.3052985473   -0.4106095845    0.0019405937
H        5.4707805144   -2.1484273379   -0.2521665916
H        6.6633472385    2.0028986210    0.1576588296
H        1.5749371896   -0.8267198616   -1.9019135758
H        0.9241090581   -0.7201221942   -0.2420468595
H        0.8374399499   -2.2536148807   -1.1407555859
H        2.6055485897    0.9922130739   -0.1270622797
17   

C        6.2553288799   -0.1198953520   -0.0979140752
C        5.1842672215   -1.1105400017   -0.2042676826
C        5.9202035665    1.2013282187    0.0671411252
C        3.8645757574   -0.7562803635   -0.1116008681
C        4.5227541602    1.5807254092    0.1331517335
C        2.7738708443   -1.7682767120   -0.3256359304
C        1.4847695395   -1.3727709120   -1.0318760542
N        3.5450896852    0.6170924679    0.0355170567
O        4.1810239398    2.7431629952    0.2576399730
O        2.8478610604   -2.8717291498    0.1917436240
H        7.2954636188   -0.4247925404   -0.1524879112
H        5.4427597321   -2.1540513023   -0.3578016444
H        6.6673402138    1.9786816104    0.1481873597
H        1.7203157783   -0.8775516431   -1.9778301551
H        0.9041754354   -0.6955547075   -0.4008898035
H        0.8880682706   -2.2650868004   -1.2418784863
H        2.5989223247    0.9690200102    0.1137756075
17   

C        6.2272850050   -0.1397054160   -0.1880498460
C        5.1392162191   -1.1153863634   -0.2540694984
C        5.9213890750    1.1763695441    0.0554529016
C        3.8350699803   -0.7546262144   -0.0481453543
C        4.5375601800    1.5645879818    0.2427484039
C        2.7100581202   -1.7427273109   -0.2256238851
C        1.4987944790   -1.3739623098   -1.0707490558
N        3.5444013246    0.6141807533    0.1780367564
O        4.2202300583    2.7237733734    0.4405928674
O        2.6670714108   -2.7597157670    0.4460183003
H        7.2568270705   -0.4509609786   -0.3328948119
H        5.3726999551   -2.1537751877   -0.4685729272
H        6.6814933550    1.9432597074    0.1119155390
H        1.8117584398   -1.2187866939   -2.1067569187
H        1.0360989514   -0.4591585884   -0.6934920012
H        0.7632987054   -2.1829913564   -1.0419422378
H        2.6123761709    0.9668991693    0.3578028836
17   

C        6.1992276980   -0.1559811351   -0.3372109002
C        5.0916882610   -1.1108512265   -0.3862459378
C        5.9370131854    1.1431014901    0.0208160617
C        3.8129150645   -0.7479914620   -0.0658629252
C        4.5790689179    1.5339091494    0.3422761599
C        2.6433006371   -1.7024542371   -0.1830686826
C        1.5192266353   -1.4026757144   -1.1642933282
N        3.5669446314    0.6034675866    0.2828464797
O        4.3002351269    2.6786394195    0.6512072195
O        2.4842602734   -2.5917580194    0.6338754262
H        7.2093636119   -0.4692120832   -0.5807469549
H        5.2924789637   -2.1364221504   -0.6795118493
H        6.7130179771    1.8941528659    0.0737685650
H        1.7917929969   -1.7841256841   -2.1518499233
H        1.3501949636   -0.3255165619   -1.2351796666
H        0.5958912687   -1.8885874266   -0.8369343687
H        2.6609050072    0.9457952989    0.5794552359
17   

C        6.1504556176   -0.1305786848   -0.4545341580
C        5.0176085293   -1.0558283334   -0.4961741938
C        5.9448306031    1.1465312562    0.0052367656
C        3.7670383238   -0.6799469887   -0.0927472970
C        4.6202923608    1.5441495706    0.4387880003
C        2.5672923993   -1.6092903455   -0.1280453662
C        1.6352048195   -1.5977479253   -1.3288844951
N        3.5813744570    0.6440413692    0.3744815743
O        4.3951361729    2.6679830292    0.8511399372
O        2.3018030336   -2.3047498404    0.8352369586
H        7.1360944614   -0.4490023149   -0.7784089497
H        5.1790257122   -2.0691563182   -0.8492815925
H        6.7424091152    1.8743577216    0.0617122797
H        2.1055726474   -2.1282490914   -2.1607890915
H        1.4315355733   -0.5674166149   -1.6317576627
H        0.6918607162   -2.0899523350   -1.0763464515
H        2.7072660897    0.9746186556    0.7660600280
17   

C        6.0831837059   -0.0515992608   -0.5976975672
C        4.9153904775   -0.9320337403   -0.6467508212
C        5.9518691682    1.1906154952   -0.0283064964
C        3.6942522182   -0.5328527904   -0.1762688428
C        4.6695049788    1.5967665842    0.5113651347
C        2.4901168763   -1.4522332948   -0.1241555236
C        1.9160910181   -2.0331025766   -1.4076974170
N        3.5919853915    0.7453231776    0.4239280923
O        4.5180455319    2.6825883924    1.0423820937
O        2.1296882091   -1.9088465759    0.9467050932
H        7.0387136257   -0.3778239827   -0.9955565615
H        5.0319113889   -1.9305878855   -1.0546016655
H        6.7797728664    1.8822440972    0.0441578165
H        2.7170904640   -2.2442585443   -2.1202067184
H        1.2247878983   -1.3129584519   -1.8531530460
H        1.3765763628   -2.9593554588   -1.1914981995
H        2.7590943276    1.0552580361    0.9113785831
17   

C        6.0148625243   -0.0062297951   -0.7115253213
C        4.8362524857   -0.8712264875   -0.7783134840
C        5.9152640954    1.2007148446   -0.0653421054
C        3.6299478674   -0.4837633315   -0.2568374593
C        4.6540421412    1.5879092988    0.5341494635
C        2.4285075552   -1.3949924198   -0.1932650926
C        1.9894345661   -2.1961365159   -1.4117864553
N        3.5623628011    0.7582140109    0.4195303448
O        4.5358810112    2.6360926268    1.1435382898
O        1.9368128236   -1.6581980057    0.8929816472
H        6.9555380400   -0.3183010787   -1.1536883761
H        4.9421879793   -1.8482742859   -1.2365851132
H        6.7539883731    1.8768094340    0.0265622962
H        2.8532636690   -2.5275758004   -1.9916574067
H        1.3559242677   -1.5700517207   -2.0455734167
H        1.4184607132   -3.0734671548   -1.0952591534
H        2.7488757482    1.0354681107    0.9577370933
17   

C        5.9795725246    0.0335237210   -0.7635333085
C        4.7850138696   -0.8075839255   -0.8528403173
C        5.9170762108    1.2002363756   -0.0435631267
C        3.5972790777   -0.4367718741   -0.2765392429
C        4.6778035112    1.5703762101    0.6090017782
C        2.3735758340   -1.3102375635   -0.2338681400
C        2.0197543789   -2.2359665981   -1.3903313613
N        3.5701890450    0.7660221795    0.4706318122
O        4.5938506913    2.5805033378    1.2847564039
O        1.7457838108   -1.4009038984    0.8119685009
H        6.9034984938   -0.2650497154   -1.2482915123
H        4.8666474507   -1.7513713765   -1.3796703612
H        6.7691492350    1.8564887960    0.0674003379
H        2.8799158818   -2.8459636302   -1.6737041990
H        1.6997801503   -1.6395560414   -2.2488293620
H        1.2017405419   -2.9001554887   -1.0971153039
H        2.7690237919    1.0218351662    1.0381101081
17   

C        5.9502701282    0.0838693233   -0.8286818432
C        4.7376686839   -0.7309315204   -0.9200157073
C        5.9388482606    1.2040425432   -0.0358197290
C        3.5838576038   -0.3849710869   -0.2639081742
C        4.7341268084    1.5530314173    0.6890691500
C        2.3375478922   -1.2189739994   -0.2410791133
C        2.0390796382   -2.2292248183   -1.3398516016
N        3.6094363429    0.7726081439    0.5518266937
O        4.6953511521    2.5239170019    1.4238870965
O        1.6022919691   -1.1609443702    0.7366537706
H        6.8472618066   -0.1968088942   -1.3712715233
H        4.7742008042   -1.6339689991   -1.5190803032
H        6.8060158361    1.8396880990    0.0781449520
H        2.7903818125   -3.0226687125   -1.3332095031
H        2.0449419769   -1.7287807396   -2.3117673443
H        1.0530763570   -2.6738449738   -1.1773648008
H        2.8241030001    1.0162001729    1.1468783869
17   

C        5.9213987277    0.1137317969   -0.8343010414
C        4.7104396486   -0.6967258578   -0.9751631210
C        5.9203742768    1.1604136020    0.0533188937
C        3.5717258454   -0.4260322904   -0.2598670717
C        4.7276743604    1.4387995541    0.8266598522
C        2.3128572554   -1.2359473146   -0.3117005409
C        2.0916928142   -2.2971196445   -1.3804862791
N        3.6075697974    0.6601289153    0.6487809022
O        4.6952685713    2.3487954876    1.6359530556
O        1.4661278265   -1.0745732063    0.5597979753
H        6.8083006196   -0.1112904237   -1.4178697869
H        4.7357769513   -1.5331487851   -1.6647236083
H        6.7858920981    1.7905641439    0.2043375306
H        2.8260444099   -3.0985139402   -1.2664732568
H        2.1903728756   -1.8490741316   -2.3726934505
H        1.0877342134   -2.7198292213   -1.2820139402
H        2.8155662042    0.8692045889    1.2485789236
17   

C        5.9368578114    0.0968570409   -0.8680473619
C        4.7048948049   -0.6775506742   -1.0288789046
C        5.9794921901    1.0878035689    0.0804131732
C        3.5948888381   -0.4396215293   -0.2587513919
C        4.8110673335    1.3443255100    0.8970161818
C        2.2999404417   -1.1843748567   -0.3600517874
C        2.1025308758   -2.3101232352   -1.3656439619
N        3.6753594538    0.5908653453    0.7100472265
O        4.8120256646    2.2155216711    1.7485602742
O        1.3782794544   -0.8762857794    0.3874910119
H        6.8036266198   -0.1080674243   -1.4881275590
H        4.6894799857   -1.4564335842   -1.7830818384
H        6.8606223401    1.6923884536    0.2450443716
H        2.8228713684   -3.1094855242   -1.1735857059
H        2.2407318391   -1.9291346282   -2.3807802960
H        1.0909883190   -2.7161817317   -1.2749199888
H        2.8848858234    0.8109928310    1.3080686120
