14   

C       -0.3065415200    0.8554450308   -2.0520910021
C       -0.4546071975   -0.1050800792   -0.9694483587
C       -1.0805962454    0.5379215730   -3.1382624046
C       -1.3506898695   -1.1149877132   -1.2687436784
C       -1.7304182729   -2.2922533309   -0.4666153984
C       -1.3075243512   -2.3876744794    0.9916120415
O       -2.3294401386   -3.2374974564   -0.9720184232
S       -2.0200031305   -0.9296854890   -2.8906924321
H        0.3465371355    1.7205701080   -2.0057613404
H        0.0920378662   -0.0322574175   -0.0351019220
H       -1.1170684923    1.1170162770   -4.0534652766
H       -1.7454317691   -1.5604199243    1.5561701328
H       -0.2181799723   -2.3424593591    1.0665294032
H       -1.6537851502   -3.3325642187    1.4199494269
14   

C       -0.2946142035    0.8543350537   -2.0632369696
C       -0.3905704092   -0.1379795954   -1.0036018180
C       -1.1700088109    0.6058745097   -3.0889434805
C       -1.3587959404   -1.0927946966   -1.2525436759
C       -1.6833273090   -2.3078098064   -0.4759223624
C       -1.3076718737   -2.3896245824    0.9961746189
O       -2.1351530253   -3.3085596990   -1.0232198911
S       -2.1483095392   -0.8300439914   -2.8075581790
H        0.3984983468    1.6888564897   -2.0469812879
H        0.2474997864   -0.1298684412   -0.1262531590
H       -1.2565889421    1.2162454110   -3.9801354525
H       -1.8727253331   -1.6426014569    1.5597360569
H       -0.2379104113   -2.2061642548    1.1215332741
H       -1.5443475332   -3.3831315255    1.3874680457
14   

C       -0.2472494327    0.8028538773   -2.0890830247
C       -0.3015569375   -0.2145016959   -1.0503401806
C       -1.2328560212    0.6398524102   -3.0285822342
C       -1.3545341552   -1.0924862340   -1.2209316686
C       -1.6491226625   -2.3311886240   -0.4580830067
C       -1.3278679198   -2.4003532310    1.0281798574
O       -1.9728501424   -3.3657276587   -1.0291846102
S       -2.2696656937   -0.7407652882   -2.6857335407
H        0.4977553307    1.5908384146   -2.1228169106
H        0.4284735587   -0.2814413978   -0.2508317504
H       -1.3654306742    1.2803248108   -3.8925769533
H       -2.0969410459   -1.8640220602    1.5901487875
H       -0.3540889562   -1.9502030956    1.2323106449
H       -1.3089725957   -3.4428396156    1.3582047145
14   

C       -0.2100574539    0.7893796856   -2.1150001619
C       -0.2200324475   -0.2596222585   -1.1067707268
C       -1.2786469210    0.6981921173   -2.9701749976
C       -1.3235462433   -1.0812301735   -1.2088630145
C       -1.5776250923   -2.3475233285   -0.4612913751
C       -1.3629696864   -2.3849662590    1.0448141790
O       -1.7322831720   -3.4089119416   -1.0488497906
S       -2.3422031040   -0.6494024168   -2.5794864939
H        0.5642097808    1.5456134181   -2.1904720022
H        0.5749156023   -0.3935486924   -0.3806576036
H       -1.4554105186    1.3714415806   -3.8006910925
H       -2.2712198252   -2.0418204992    1.5470177454
H       -0.5321602985   -1.7361102582    1.3307271288
H       -1.1418442224   -3.4064213077    1.3665768059
14   

C       -0.6219387298    0.8800542619   -2.0639338850
C       -1.1450669118   -0.0649323251   -1.0889284289
C       -0.4755822434    0.3165184995   -3.3061670588
C       -1.4151212492   -1.2964541590   -1.6403818861
C       -1.8168223781   -2.5434715178   -0.9060892980
C       -3.1130368467   -2.5508027313   -0.1111147496
O       -1.0245455112   -3.4563687255   -0.7369375789
S       -0.9754452667   -1.3714162707   -3.3435779002
H       -0.3631504212    1.9071570766   -1.8291026373
H       -1.2771964983    0.1702091344   -0.0378257126
H       -0.0907732373    0.8407860065   -4.1729708921
H       -3.9398216069   -2.8261297858   -0.7709980614
H       -3.3060728485   -1.5595476832    0.3062223666
H       -3.0494859397   -3.2758758293    0.7049076564
14   

C       -0.4983581568    0.8467282967   -2.0643722241
C       -0.9173150948   -0.0855629361   -1.0284651517
C       -0.5621036827    0.2927321551   -3.3180269663
C       -1.2879360180   -1.3051362919   -1.5376537288
C       -1.7648391147   -2.5112642233   -0.7692471844
C       -3.2429100465   -2.6513949437   -0.4462124391
O       -0.9797236160   -3.3504274001   -0.3625347335
S       -1.1304484749   -1.3735897130   -3.2894569390
H       -0.1687170432    1.8608433961   -1.8643968696
H       -0.9267176100    0.1539080785    0.0300369293
H       -0.2907154780    0.8124324963   -4.2294038685
H       -3.8078227239   -2.7936943845   -1.3709972595
H       -3.5978305833   -1.7472742289    0.0549513094
H       -3.4046884787   -3.5117168352    0.2092642404
14   

C       -0.4076498023    0.8153506953   -2.0198480511
C       -0.7440421611   -0.0978614223   -0.9381253719
C       -0.6851231340    0.2832463209   -3.2532390928
C       -1.2369854488   -1.2979385216   -1.3913625990
C       -1.7865034570   -2.4130662445   -0.5485148739
C       -3.2534170235   -2.7944096741   -0.6762919620
O       -1.0475526772   -3.1403789562    0.0954182174
S       -1.3539691909   -1.3418501387   -3.1490883474
H        0.0114378700    1.8039474072   -1.8644079332
H       -0.6261343013    0.1430804462    0.1137090781
H       -0.5117814556    0.7962067676   -4.1919718160
H       -3.5480442661   -2.8230501731   -1.7279290685
H       -3.8664039139   -2.0557214479   -0.1534193799
H       -3.4253066921   -3.7787343605   -0.2319433135
14   

C       -0.3297929798    0.7853791166   -2.0242355985
C       -0.6382617849   -0.1261216702   -0.9330614708
C       -0.7584399318    0.3075174568   -3.2360613750
C       -1.2578311543   -1.2794122889   -1.3598061234
C       -1.8276026026   -2.3393563969   -0.4745410517
C       -3.2384258661   -2.8552859003   -0.7184045618
O       -1.1176405569   -2.9397640343    0.3196301895
S       -1.5395952015   -1.2641382935   -3.1005005755
H        0.1764265961    1.7354647640   -1.8893308130
H       -0.4155795705    0.0813278694    0.1091216791
H       -0.6319446480    0.8301569484   -4.1769363216
H       -3.3779057990   -3.1048184039   -1.7726714128
H       -3.9603619198   -2.0861543778   -0.4316956129
H       -3.4179361068   -3.7511309225   -0.1173164421
14   

C       -0.2647019133    0.7737394802   -2.0497156089
C       -0.5570472603   -0.1356684096   -0.9524829017
C       -0.8238320039    0.3581754793   -3.2309970443
C       -1.3000820959   -1.2283284570   -1.3470606837
C       -1.8651163358   -2.2571847922   -0.4338124941
C       -3.2149364295   -2.8929981812   -0.7337075850
O       -1.1824790589   -2.7286443510    0.4671185346
S       -1.7145055384   -1.1506390368   -3.0597685050
H        0.3240019194    1.6784262877   -1.9398268907
H       -0.2362341755    0.0278425100    0.0719938868
H       -0.7307556276    0.8911829470   -4.1699493866
H       -3.2312955135   -3.2895786280   -1.7515563824
H       -4.0030426961   -2.1434568607   -0.6237672449
H       -3.4053008889   -3.7116416323   -0.0339067418
14   

C       -0.2137579677    0.7509428539   -2.0810931660
C       -0.5107853899   -0.1501515131   -0.9782809578
C       -0.8788744937    0.4034079337   -3.2290945846
C       -1.3729220135   -1.1669913658   -1.3360935539
C       -1.9360842633   -2.1781790101   -0.4091852739
C       -3.2262278270   -2.9092175402   -0.7516575552
O       -1.3019172712   -2.5312447509    0.5789154469
S       -1.8816481481   -1.0284036061   -3.0194645726
H        0.4548292892    1.6013752502   -1.9983680386
H       -0.1073198180   -0.0367782606    0.0236813182
H       -0.8003319302    0.9431419964   -4.1655228557
H       -3.1513065389   -3.3661768844   -1.7413510268
H       -4.0607704323   -2.2032686256   -0.7391287486
H       -3.4160539077   -3.6950021455   -0.0150071394
14   

C       -0.1762595534    0.7332296238   -2.1015452399
C       -0.4698753351   -0.1626618289   -0.9935717124
C       -0.9431263525    0.4622522319   -3.2060014769
C       -1.4424016995   -1.0931795458   -1.3023089839
C       -1.9927736353   -2.1044403436   -0.3714735702
C       -3.2306183554   -2.9085838153   -0.7412626362
O       -1.4132207524   -2.3549658378    0.6803912698
S       -2.0445316262   -0.8868221087   -2.9474875731
H        0.5642077565    1.5247330539   -2.0534982637
H        0.0166162012   -0.1090449272   -0.0239215629
H       -0.8834514810    1.0116455117   -4.1381934911
H       -3.0722457256   -3.4250569386   -1.6912826020
H       -4.0907966774   -2.2398112510   -0.8292163653
H       -3.4374001754   -3.6518385085    0.0339541788
14   

C       -0.1398066119    0.6900776460   -2.1089646616
C       -0.4399870213   -0.2006549647   -0.9985703237
C       -0.9905634148    0.5043687528   -3.1687924985
C       -1.5113528857   -1.0332458531   -1.2567245076
C       -2.0595452104   -2.0468075813   -0.3281696986
C       -3.2471366415   -2.9084359905   -0.7313763420
O       -1.5579644205   -2.2042578899    0.7805844471
S       -2.1843065107   -0.7532483454   -2.8630562951
H        0.6659967399    1.4164067900   -2.0948130798
H        0.1140035859   -0.2147924085   -0.0643690029
H       -0.9405862395    1.0649884900   -4.0948497720
H       -3.0058454600   -3.4743285149   -1.6348291728
H       -4.1173844454   -2.2745640893   -0.9200968524
H       -3.4878393549   -3.6106360641    0.0718238792
14   

C       -0.1157397413    0.6562632658   -2.1057692360
C       -0.4080271488   -0.2373615760   -0.9956183574
C       -1.0562112003    0.5735417574   -3.1007483023
C       -1.5708550505   -0.9584949081   -1.1821617379
C       -2.1055814874   -1.9836147615   -0.2573902270
C       -3.2543453545   -2.8878336227   -0.6798484902
O       -1.6743232407   -2.0663163370    0.8881755346
S       -2.3297510953   -0.5842798514   -2.7300227409
H        0.7497211549    1.3097011324   -2.1385484673
H        0.2182720481   -0.3350500184   -0.1135875817
H       -1.0268585040    1.1532984736   -4.0158417478
H       -2.9306782445   -3.5344022488   -1.4996599954
H       -4.1060049533   -2.2854350310   -1.0056137345
H       -3.5660450144   -3.5122465501    0.1622304148
14   

C       -0.0996294017    0.6145460121   -2.1190385100
C       -0.3999016519   -0.2788660712   -1.0108762343
C       -1.1011104484    0.6345084538   -3.0558682671
C       -1.6328272759   -0.8873203105   -1.1334554190
C       -2.1730206403   -1.9205873837   -0.2173056566
C       -3.2577912107   -2.8800497567   -0.6852776566
O       -1.8476585908   -1.9289745745    0.9647551831
S       -2.4445331468   -0.4199823010   -2.6283219113
H        0.8150988682    1.1932380526   -2.1930371968
H        0.2723404807   -0.4587688820   -0.1770352563
H       -1.0772182850    1.2311263366   -3.9602223993
H       -2.8484641859   -3.5525446491   -1.4436869390
H       -4.0987187525   -2.3246569152   -1.1074907201
H       -3.6180379683   -3.4753089362    0.1585421397
14   

C       -0.0774859338    0.5527847755   -2.1178015233
C       -0.3906852830   -0.3332301495   -1.0072601032
C       -1.1242370649    0.6746521165   -2.9954106223
C       -1.6771755629   -0.8264753962   -1.0631013315
C       -2.2433077816   -1.8538892055   -0.1488016513
C       -3.2382244356   -2.8812362684   -0.6692744203
O       -2.0537401969   -1.7811944517    1.0589874196
S       -2.5268018151   -0.2694971370   -2.5049969497
H        0.8778613409    1.0531289078   -2.2364318071
H        0.3122386107   -0.5907477154   -0.2206275588
H       -1.1004098786    1.2837199502   -3.8914351617
H       -2.7336937477   -3.5569564383   -1.3648769668
H       -4.0652654856   -2.3845389059   -1.1819726009
H       -3.6403080991   -3.4659558874    0.1629317383
14   

C       -0.0683464862    0.4832945230   -2.1269855501
C       -0.3906636079   -0.4092954432   -1.0242410757
C       -1.1523763420    0.7269974823   -2.9307954514
C       -1.7159660733   -0.7826698754   -1.0095420520
C       -2.3234443515   -1.7980050239   -0.0974803990
C       -3.2064696962   -2.8988703000   -0.6670425464
O       -2.2862138867   -1.6511708156    1.1159005964
S       -2.6009090621   -0.1053979222   -2.3762114227
H        0.9189036569    0.9012955190   -2.2935165270
H        0.3351749944   -0.7554824619   -0.2948018541
H       -1.1300016175    1.3618209122   -3.8088030314
H       -2.5872748709   -3.6120821548   -1.2173912986
H       -3.9561539014   -2.4779945099   -1.3408731134
H       -3.7173069719   -3.4254808384    0.1440045087
14   

C       -0.0589785580    0.4168969917   -2.1765502070
C       -0.3938758657   -0.4943642497   -1.0927200614
C       -1.1638038111    0.7964141202   -2.8953770755
C       -1.7418161475   -0.7495755374   -1.0120213468
C       -2.4115914334   -1.7288531260   -0.0910236035
C       -3.1377403164   -2.9302491892   -0.6766127169
O       -2.5471705920   -1.4862142054    1.0974299167
S       -2.6463459076    0.0722889314   -2.2814904789
H        0.9503128083    0.7527534309   -2.3902111571
H        0.3403664006   -0.9321328516   -0.4237220986
H       -1.1375777094    1.4690730231   -3.7446338321
H       -2.4050907494   -3.6764257631   -0.9948147718
H       -3.7374461336   -2.6282479193   -1.5384242800
H       -3.7951062970   -3.3747501684    0.0758370047
14   

C       -0.6052821107    1.0091776358   -2.0888251325
C       -1.1464987589    0.3438660674   -0.9131341308
C       -0.5010005947    0.1617975134   -3.1629391970
C       -1.4240385114   -0.9810423145   -1.1402192483
C       -2.0007126556   -1.9753138371   -0.1647514271
C       -1.0666037448   -2.7431382268    0.7553413422
O       -3.2050976050   -2.1360297022   -0.0667222928
S       -1.0528730845   -1.4682726915   -2.7903981965
H       -0.3229346534    2.0564799321   -2.1116276383
H       -1.3201669169    0.8423493995    0.0351358802
H       -0.1268015338    0.4543466589   -4.1369705606
H       -0.4168946590   -2.0439640874    1.2878834420
H       -0.4504975725   -3.4257203283    0.1644955515
H       -1.6451408708   -3.3198235316    1.4824565608
14   

C       -0.4871556122    0.9742216202   -2.0568035411
C       -0.9474172067    0.2149028808   -0.9040266189
C       -0.5328227467    0.2392101289   -3.2143035734
C       -1.2838391138   -1.0800864315   -1.2256654796
C       -1.9347339465   -2.0913443136   -0.3261043314
C       -1.2142329851   -2.5312430104    0.9386419643
O       -3.1124617685   -2.3836764894   -0.4572348947
S       -1.1222750441   -1.3987435920   -2.9496638717
H       -0.1610391557    2.0077523765   -2.0066106089
H       -1.0425161463    0.6359848645    0.0915699113
H       -0.2461626171    0.6164957179   -4.1888624284
H       -0.6272897593   -1.7045622431    1.3462128328
H       -0.5433365773   -3.3611321413    0.7019906236
H       -1.9386093471   -2.8592684667    1.6892035946
14   

C       -0.4235002120    0.9296283159   -2.0361254280
C       -0.8243100039    0.1375057862   -0.8833355230
C       -0.6092351588    0.2582302238   -3.2177555642
C       -1.2573627321   -1.1247078004   -1.2333179558
C       -1.8960043232   -2.1382527483   -0.3434972628
C       -1.2762776118   -2.4418379116    1.0128241568
O       -3.0198234132   -2.5627668352   -0.5726440856
S       -1.2616424383   -1.3595413188   -2.9790500678
H       -0.0383947785    1.9416016710   -1.9677226395
H       -0.8127891558    0.5184450969    0.1324752264
H       -0.3881107618    0.6699717946   -4.1954263023
H       -0.8262740693   -1.5427108906    1.4395230835
H       -0.5021979218   -3.2042689930    0.8929273519
H       -2.0412434519   -2.8152372678    1.6992629628
14   

C       -0.3897671385    0.8964941721   -2.0364351355
C       -0.7374800805    0.0719919908   -0.8891600050
C       -0.6982566742    0.2884823078   -3.2263109359
C       -1.2639674749   -1.1519888433   -1.2544037807
C       -1.8611434866   -2.1918134354   -0.3796199062
C       -1.3066663358   -2.4141895190    1.0204051582
O       -2.9082092892   -2.7510237967   -0.6832084283
S       -1.4082468429   -1.3068963921   -3.0042623244
H        0.0496697097    1.8852852019   -1.9572059574
H       -0.6173701925    0.4058992848    0.1358856806
H       -0.5325344820    0.7328935889   -4.2006325366
H       -1.1010114559   -1.4592208882    1.5085555096
H       -0.3808257721   -2.9917309281    0.9556066490
H       -2.0297540256   -2.9690316691    1.6248434497
14   

C       -0.3436595949    0.8790899639   -2.0286629337
C       -0.6420081041    0.0209014014   -0.8923394750
C       -0.8080622645    0.3586921937   -3.2092304120
C       -1.3014107853   -1.1379791521   -1.2575414775
C       -1.8598170092   -2.1968289221   -0.3906537969
C       -1.3224507299   -2.3826854005    1.0205379189
O       -2.8383137072   -2.8506162734   -0.7374369261
S       -1.6140586981   -1.1910145536   -2.9923717315
H        0.1774026599    1.8272798058   -1.9478777084
H       -0.3864548024    0.2817779260    0.1292305638
H       -0.7000415956    0.8402051759   -4.1739839696
H       -1.4110834493   -1.4492759812    1.5815306267
H       -0.2717803870   -2.6810180590    0.9755733601
H       -1.8905971310   -3.1615022619    1.5371022902
14   

C       -0.3115286192    0.8590297906   -2.0500533558
C       -0.5657069667   -0.0318939899   -0.9283241354
C       -0.8765379097    0.4042415587   -3.2135056127
C       -1.3066916913   -1.1437342377   -1.2849035480
C       -1.8115499548   -2.2397516592   -0.4379145525
C       -1.3208439088   -2.3805457951    0.9951794995
O       -2.6770608332   -3.0098379120   -0.8449375615
S       -1.7314768157   -1.1188771467   -2.9972357242
H        0.2557327654    1.7805534934   -1.9718956637
H       -0.2147695667    0.1694637643    0.0783660215
H       -0.8124294656    0.9173060123   -4.1658360560
H       -1.5464757043   -1.4704363932    1.5565351867
H       -0.2412373732   -2.5516612766    0.9988103389
H       -1.8163052996   -3.2274957970    1.4782691410
14   

C       -0.3066924398    0.8648430674   -2.0602560999
C       -0.5085707788   -0.0624512893   -0.9575424371
C       -0.9773836659    0.4801447541   -3.1923659380
C       -1.3294720944   -1.1237153871   -1.2930204723
C       -1.7724029326   -2.2610624425   -0.4683687259
C       -1.3152675386   -2.3771666662    0.9779159568
O       -2.5113566758   -3.1274156332   -0.9287933249
S       -1.8767144536   -1.0158055099   -2.9672974542
H        0.3050277908    1.7583412906   -1.9927381240
H       -0.0581449573    0.0739021534    0.0200627943
H       -0.9631961507    1.0275635134   -4.1274654193
H       -1.6493069013   -1.5027443721    1.5422325428
H       -0.2247665646   -2.4400411160    1.0167036531
H       -1.7394379341   -3.2768276683    1.4327451762
