14   

C       -1.7011906955   -0.2959297767    0.1205197795
C        0.4076507823   -0.7134711401    0.1434816868
C        1.7730573129   -1.3318565289    0.0555675803
C        0.2773311457    0.8242679608    0.1942988081
N        1.3613759559    2.0365410989   -1.9197184406
N       -1.1913227857    0.9108314689    0.1723615295
N       -0.7573022553   -1.3064993705    0.0911885191
N        0.8682054242    1.4878202760   -0.9739554466
N        1.8227321580   -2.6275193672   -0.2958711529
O        2.7942452531   -0.6755390109    0.1547581804
H       -2.7725679977   -0.4822412039    0.0993091705
H        0.7080040614    1.2170656395    1.1249219823
H        2.7417109692   -3.0533835552   -0.3786887261
H        0.9749152821   -3.1821535223   -0.3713890555
14   

C       -1.7273879200   -0.3290658557    0.1096065531
C        0.3844786400   -0.7221975334    0.2211090475
C        1.7549254493   -1.3379939925    0.1760723541
C        0.2360204193    0.8170008366    0.1814011877
N        1.3688795064    1.9233674597   -1.9647665539
N       -1.2320605332    0.8847993176    0.1134080495
N       -0.7725797234   -1.3288754368    0.1532999894
N        0.8551157977    1.4210102984   -1.0042656637
N        1.8391590504   -2.5547442420   -0.3971478306
O        2.7631820307   -0.6933518556    0.4006192917
H       -2.7958368620   -0.5288625690    0.0707386183
H        0.6353778435    1.2651072202    1.1010746457
H        2.7656384587   -2.9654083361   -0.4741408098
H        1.0039933187   -3.1060422449   -0.5720889722
14   

C       -1.7313601603   -0.3398431676    0.0281200956
C        0.3690076636   -0.7524051844    0.2530198917
C        1.7269031564   -1.4014634872    0.2965033448
C        0.2382949966    0.7905043621    0.1545090687
N        1.4562094179    1.8098706180   -1.9879995455
N       -1.2248273966    0.8693739223    0.0240043246
N       -0.7897425019   -1.3473223449    0.1351090308
N        0.9068542289    1.3452486902   -1.0281136076
N        1.8911293754   -2.4848975083   -0.4952976491
O        2.7050856636   -0.8111669716    0.7159506616
H       -2.7993852999   -0.5307752219   -0.0483949723
H        0.6068765239    1.2664717512    1.0732296161
H        2.8230532045   -2.8900864875   -0.5202923652
H        1.0864239393   -3.0090146935   -0.8261532418
14   

C       -1.7346151939   -0.2961787676   -0.0345871118
C        0.3474558878   -0.7520451430    0.2677182009
C        1.6803901280   -1.4461387210    0.3928176440
C        0.2566422194    0.7940776668    0.1112689789
N        1.5279579601    1.7105689731   -2.0465497260
N       -1.2007095967    0.9011422932   -0.0569719323
N       -0.8201745170   -1.3216454191    0.1231831514
N        0.9571823825    1.2908141394   -1.0784356799
N        1.9729381869   -2.3616467768   -0.5622428206
O        2.5966577880   -0.9442989777    1.0160064634
H       -2.8046878939   -0.4650559953   -0.1313590236
H        0.6169648125    1.2942736887    1.0205463383
H        2.9052092883   -2.7647663596   -0.5154189512
H        1.2279044555   -2.8434238497   -1.0562235544
14   

C       -1.7534613093   -0.2775824358   -0.0181679139
C        0.3180538823   -0.7738718897    0.2958949870
C        1.6277624011   -1.5074585558    0.4643432764
C        0.2640426328    0.7698119380    0.0774664115
N        1.5299538895    1.5785121093   -2.1261806792
N       -1.1911247346    0.9049262406   -0.0884206412
N       -0.8635308281   -1.3180768482    0.1743150759
N        0.9633829175    1.2058913771   -1.1364406635
N        2.0526648457   -2.2348355626   -0.6018773895
O        2.4640846925   -1.1257601978    1.2600518834
H       -2.8278158539   -0.4242735815   -0.1028105270
H        0.6402162445    1.2970168896    0.9649376888
H        2.9793051174   -2.6416422720   -0.4997195738
H        1.3782060408   -2.6581731593   -1.2315810500
14   

C       -1.7680032353   -0.2460641615    0.0784350871
C        0.2996597480   -0.7920059971    0.3356095833
C        1.5871909244   -1.5656348305    0.5192980856
C        0.2807000240    0.7442573086    0.0490003350
N        1.4763570291    1.4389576126   -2.2315911994
N       -1.1751226972    0.9140330687   -0.0720607341
N       -0.9019331483   -1.3019448639    0.2908990479
N        0.9425174736    1.1158803761   -1.2067340318
N        2.1277107170   -2.0930091785   -0.6171458446
O        2.3326410541   -1.3501154027    1.4545882195
H       -2.8484766888   -0.3646051690    0.0401641056
H        0.6993796306    1.2988093730    0.9000626689
H        3.0428236348   -2.5170056484   -0.4815923982
H        1.5209702200   -2.4350959616   -1.3552415428
14   

C       -1.7830052977   -0.1865550010    0.2354844057
C        0.2774416643   -0.8051179342    0.3704896714
C        1.5384658250   -1.6240434986    0.5644918811
C        0.2934019919    0.7187467279    0.0131790579
N        1.3402336085    1.3014628746   -2.3699756146
N       -1.1600923591    0.9389915704   -0.0203973094
N       -0.9433418659   -1.2615065878    0.4521807806
N        0.8745248721    1.0259016524   -1.2988547196
N        2.1992214636   -1.9494307370   -0.5922723189
O        2.1516254264   -1.6505223712    1.6129169862
H       -2.8671063702   -0.2648747718    0.2750035153
H        0.7827976718    1.2946889830    0.8105422186
H        3.0900490637   -2.4141999645   -0.4275342216
H        1.6722438748   -2.1727319785   -1.4295687110
14   

C       -1.7822568483   -0.0887014001    0.4085881537
C        0.2545751482   -0.8047040013    0.3858589030
C        1.4831073331   -1.6721015969    0.5933588622
C        0.3027634664    0.7012822517   -0.0464225339
N        1.1194926515    1.1642434724   -2.5437503453
N       -1.1360680246    0.9906540943    0.0378608298
N       -0.9729462224   -1.1864176414    0.6172625002
N        0.7596624370    0.9387106811   -1.4210023252
N        2.2774708666   -1.8110286572   -0.5236492329
O        1.8931494902   -2.0366351589    1.6770970691
H       -2.8611106885   -0.1146637116    0.5441854130
H        0.8848521453    1.2910972427    0.6746688010
H        3.1183681622   -2.3561777852   -0.3406665899
H        1.8619056252   -1.8461956404   -1.4466207424
14   

C       -1.7614662497   -0.0206301697    0.5550502423
C        0.2390099571   -0.8274062185    0.3870258388
C        1.4329334211   -1.7487110592    0.5755436052
C        0.3093620072    0.6659019749   -0.0871899648
N        0.8673603548    1.0463514325   -2.6691917500
N       -1.1016740991    1.0233542719    0.1149659688
N       -0.9825162253   -1.1446841679    0.7263794528
N        0.6280838260    0.8558190221   -1.5079546725
N        2.3557810668   -1.7023535717   -0.4539749633
O        1.6538379873   -2.4247253923    1.5605326930
H       -2.8264423957    0.0005557395    0.7749572166
H        0.9802624125    1.2495697733    0.5574994159
H        3.1469086724   -2.3252487011   -0.2974850446
H        2.0863366725   -1.4777294906   -1.4020372003
14   

C       -1.7440553421    0.0401239361    0.6212207055
C        0.2232454515   -0.8375290676    0.3737468881
C        1.3764366113   -1.8157945417    0.5457294184
C        0.3118612943    0.6465596772   -0.1325364808
N        0.6858602534    0.9195371586   -2.7619200023
N       -1.0711951986    1.0579592817    0.1424706905
N       -0.9940604448   -1.1057835127    0.7691617534
N        0.5335465696    0.7803552356   -1.5784214601
N        2.4332023924   -1.6226293154   -0.3283450838
O        1.4315973172   -2.7110661924    1.3656636023
H       -2.7960402719    0.0978511729    0.8913609721
H        1.0418861205    1.2240899240    0.4502226433
H        3.1839376541   -2.3009840270   -0.2071579571
H        2.3880138845   -1.0650090104   -1.1684724330
14   

C       -1.7418869080   -0.3644458820   -0.1653227285
C        0.3485540042   -0.7484078713    0.2830202006
C        1.6090552851   -1.5423752629    0.5939521648
C        0.1247883611    0.8000940600    0.3898817965
N        1.3787933468    2.1746233722   -1.5254205530
N       -1.3121586764    0.8463084736    0.0918909173
N       -0.7705427052   -1.3347123669   -0.0574987667
N        0.8298239689    1.5509185458   -0.6575907462
N        2.7542834529   -0.7673156778    0.7026709921
O        1.6982902505   -2.7536592674    0.6408182995
H       -2.7740178000   -0.5862657798   -0.4270339956
H        0.3509178506    1.1762087070    1.3959886815
H        3.5973943844   -1.3152162528    0.8687510227
H        2.7787075931    0.2382323866    0.7907948128
14   

C       -1.7513687467   -0.3569983486   -0.1102408659
C        0.3455043941   -0.7562158356    0.2806253148
C        1.6294302241   -1.5332064724    0.5137434681
C        0.1503806891    0.7957634342    0.3433430871
N        1.4001031459    2.0680323370   -1.6437236690
N       -1.2941370813    0.8553194235    0.0863419035
N       -0.7916483479   -1.3387992711    0.0000811373
N        0.8496378204    1.4925644383   -0.7443459386
N        2.7221039350   -0.7306094263    0.8123324212
O        1.7838764564   -2.7280161057    0.3537932475
H       -2.7948395295   -0.5707230465   -0.3304525721
H        0.4074571586    1.2016357121    1.3296615830
H        3.5811581954   -1.2648749873    0.9366438991
H        2.6632765153    0.2087802524    1.1800338488
14   

C       -1.7647358337   -0.3478535755   -0.0313222251
C        0.3426580357   -0.7366986184    0.2981037189
C        1.6517761835   -1.4883338979    0.4544104601
C        0.1542394689    0.8166830181    0.3084826950
N        1.3690252754    1.9948672042   -1.7560862344
N       -1.2982381715    0.8702305805    0.0981530879
N       -0.8034826586   -1.3284210397    0.0824288035
N        0.8317405920    1.4628077576   -0.8229370081
N        2.6887786218   -0.7091008631    0.9405229988
O        1.8673759023   -2.6302843571    0.0992029315
H       -2.8158757303   -0.5663113924   -0.2056282956
H        0.4435876933    1.2595638289    1.2690810841
H        3.5616751230   -1.2292489276    1.0198153040
H        2.5496088033    0.1060074830    1.5230846897
14   

C       -1.7517012741   -0.3385323170    0.0232325668
C        0.3658459686   -0.7068239256    0.2950943158
C        1.6941680767   -1.4335579347    0.3945407396
C        0.1715100070    0.8460139922    0.2580722620
N        1.3303927151    1.9419753019   -1.8820162801
N       -1.2877444415    0.8855129917    0.0955712394
N       -0.7822826127   -1.3119434154    0.1368598772
N        0.8167694693    1.4476618146   -0.9155426072
N        2.6691108802   -0.7380782834    1.0790351526
O        1.9704027054   -2.4820024882   -0.1541475510
H       -2.8070287324   -0.5664885335   -0.1083588119
H        0.4937264434    1.3236680944    1.1909710660
H        3.5512318556   -1.2460523235    1.1257940889
H        2.4533502558   -0.0664637188    1.8053524996
14   

C       -1.7473090115   -0.3422132304    0.0959721261
C        0.3815438403   -0.6771151668    0.2972371969
C        1.7274310793   -1.3741258488    0.3559239051
C        0.1693303269    0.8719650175    0.2097125435
N        1.2416336856    1.8802359892   -2.0165369703
N       -1.2959729714    0.8888815685    0.1059017492
N       -0.7629912799   -1.3019472586    0.2073985747
N        0.7657299498    1.4266640942   -1.0116498317
N        2.6324487356   -0.8119915624    1.2206433041
O        2.0793989311   -2.2681573025   -0.3881362370
H       -2.8042908423   -0.5852303123    0.0139885213
H        0.5283152150    1.3879311193    1.1083135409
H        3.5268366069   -1.2994046081    1.2328632674
H        2.3431925257   -0.2953217774    2.0430452566
14   

C       -1.6973094541   -0.3432885515    0.1734548050
C        0.4404894801   -0.6331122577    0.2944091480
C        1.8085438749   -1.2822926151    0.3324212919
C        0.2002034656    0.9080628477    0.1638755492
N        1.1845036589    1.8325357302   -2.1377333695
N       -1.2685905464    0.8950479863    0.1191709823
N       -0.6926072589   -1.2834665948    0.2834343058
N        0.7458902714    1.4191455306   -1.0992943996
N        2.6231474973   -0.8926953201    1.3556022831
O        2.2817463871   -1.9034747024   -0.5991515180
H       -2.7523780916   -0.6056429735    0.1420981812
H        0.5903928726    1.4592903599    1.0281865678
H        3.5473387915   -1.3190077477    1.3262750822
H        2.2487992504   -0.5803131766    2.2449162629
14   

C       -1.6792619614   -0.3261299975    0.2997729355
C        0.4597158670   -0.5986504840    0.3087769703
C        1.8439117054   -1.2027690333    0.3335417871
C        0.2068037792    0.9306732103    0.1116478431
N        1.0999925815    1.7223572224   -2.2745169639
N       -1.2627908039    0.9077111166    0.1413743846
N       -0.6637878022   -1.2551618962    0.4197709552
N        0.6985598118    1.3712770890   -1.1990730744
N        2.5802614216   -1.0076679452    1.4574601454
O        2.4277072145   -1.5081814939   -0.6889110618
H       -2.7330006505   -0.5926392719    0.3395422659
H        0.6380236380    1.5243235793    0.9272661135
H        3.5334921596   -1.3594817497    1.4000296352
H        2.1394545148   -0.8986435301    2.3649303398
14   

C       -1.6501916132   -0.3072778928    0.4359425069
C        0.4856122177   -0.5627934452    0.3410906135
C        1.8849345913   -1.1207718136    0.3602427515
C        0.2110497949    0.9472073669    0.0661652440
N        1.0081558624    1.6141313134   -2.3906154608
N       -1.2557218167    0.9142158556    0.1652646336
N       -0.6195198546   -1.2178293819    0.5750790576
N        0.6462286335    1.3197512278   -1.2848807515
N        2.5459333391   -1.1279410189    1.5393450526
O        2.5488018070   -1.1764261955   -0.6584434967
H       -2.6980002890   -0.5773989353    0.5459183440
H        0.6725167571    1.5874485881    0.8284284496
H        3.5174804420   -1.4246180663    1.4855138681
H        2.0473292650   -1.1800916316    2.4218968568
14   

C       -1.6190804312   -0.2698726703    0.5164432955
C        0.5117357388   -0.5169950385    0.3501013812
C        1.9224868327   -1.0388321313    0.3794549617
C        0.2160623447    0.9676361074   -0.0085262956
N        0.9273033294    1.5110967254   -2.5211117121
N       -1.2462811659    0.9313787009    0.1444095298
N       -0.5748961346   -1.1609159961    0.6823422281
N        0.6015066948    1.2708180375   -1.3915877899
N        2.4964020544   -1.2534288673    1.5800398381
O        2.6552757933   -0.9070163079   -0.5841431355
H       -2.6597239172   -0.5382206008    0.6838121357
H        0.6979427529    1.6540556909    0.6991306164
H        3.4777135211   -1.5191304799    1.5573841337
H        1.9349092636   -1.4329154599    2.4065272577
14   

C       -1.5892530349   -0.2581445350    0.5702201820
C        0.5419548465   -0.4705212327    0.3761538444
C        1.9677113205   -0.9442189985    0.4209996901
C        0.2114892658    0.9814541624   -0.0582800305
N        0.8657932936    1.4235403392   -2.6058318466
N       -1.2472849897    0.9261970511    0.1228468882
N       -0.5238616608   -1.1175154480    0.7666959362
N        0.5643595284    1.2264895682   -1.4614727888
N        2.4545427461   -1.3685678446    1.6010429526
O        2.7567405631   -0.6483296906   -0.4584838424
H       -2.6211285378   -0.5359848928    0.7727335694
H        0.6918682491    1.7130108177    0.6039068840
H        3.4423586560   -1.6081450355    1.6195935810
H        1.8351143667   -1.6641085262    2.3493062820
14   

C       -1.7185991254   -0.3035610228    0.1116179922
C        0.3696438190   -0.7438078203   -0.1461933379
C        1.7067045497   -1.3940819814   -0.3581411197
C        0.2963067926    0.7348939343    0.3039455367
N        1.2683875695    2.3992370563   -1.5395591230
N       -1.1666785287    0.8474649599    0.4115189085
N       -0.8121582897   -1.2992303273   -0.2036984428
N        0.8240486072    1.6527839210   -0.7123212452
N        1.8863852030   -2.6263303012    0.1450787747
O        2.6768797020   -0.7536073474   -0.7222154644
H       -2.7949672358   -0.4597689440    0.1160969062
H        0.8035240040    0.8797656689    1.2664861046
H        2.8151368465   -3.0282430583    0.0501837846
H        1.0973112782   -3.1955498913    0.4360652517
14   

C       -1.7060139310   -0.2981541749    0.1122670278
C        0.3901938733   -0.7301349238   -0.0835396648
C        1.7393819386   -1.3651612835   -0.2542185729
C        0.2961868070    0.7704192003    0.2705846787
N        1.2759894206    2.3383134242   -1.6517441120
N       -1.1693149302    0.8739472784    0.3516881845
N       -0.7855011388   -1.2999821085   -0.1358357758
N        0.8281787995    1.6337059466   -0.7904725150
N        1.8506531664   -2.6666299661    0.0501410765
O        2.7390574181   -0.7063098890   -0.4794519459
H       -2.7807443333   -0.4653457063    0.1132222344
H        0.7886840566    0.9785939650    1.2293120582
H        2.7752294530   -3.0822423716   -0.0224733586
H        1.0297377313   -3.2368145023    0.2308183418
14   

C       -1.7037635300   -0.2952736094    0.1268209014
C        0.3984774884   -0.7219934193   -0.0024243345
C        1.7559785486   -1.3451779884   -0.1433545785
C        0.2885924185    0.7959980554    0.2512724117
N        1.2893422645    2.2532926996   -1.7458848295
N       -1.1787427267    0.8931581576    0.3030094153
N       -0.7726532414   -1.3022578817   -0.0512129866
N        0.8323953321    1.5969622201   -0.8519288055
N        1.8288888149   -2.6803349572   -0.0529481647
O        2.7696839662   -0.6783200794   -0.2522343413
H       -2.7771965827   -0.4705820525    0.1234098320
H        0.7638803435    1.0675011399    1.2029660400
H        2.7501059813   -3.1036688799   -0.1225567815
H        0.9913970825   -3.2483653453    0.0356632494
14   

C       -1.7056256438   -0.3041926142    0.1204191530
C        0.4025670370   -0.7196837734    0.0677136265
C        1.7671851627   -1.3332383370   -0.0468988937
C        0.2749303119    0.8107605644    0.2196947955
N        1.3111634169    2.1516879791   -1.8399226116
N       -1.1938671557    0.8975305750    0.2342296444
N       -0.7631504793   -1.3111635087    0.0172262778
N        0.8387432817    1.5463629762   -0.9184385745
N        1.8233543802   -2.6665452237   -0.1770542315
O        2.7855480238   -0.6647881516   -0.0503432600
H       -2.7773461470   -0.4892965850    0.1078172852
H        0.7263744641    1.1454958921    1.1629526582
H        2.7434780705   -3.0913052446   -0.2519772305
H        0.9787542956   -3.2310623922   -0.1715172537
