22   

C        1.8240696730   -0.2080098563    0.1166511639
C        0.5375295020   -0.4647887546    0.5835823727
C        2.9233009646   -0.4422541850    0.9454123556
C        0.3551193324   -0.9603407215    1.8754340024
C        2.7602446371   -0.9282505904    2.2537354472
C        1.4490957229   -1.1993245421    2.7252943706
C        3.9531985060   -1.1290921218    3.0993932345
C        5.2694877430   -0.8026800157    2.8750549637
C        1.1980232435   -1.7626770655    4.1040170630
C        6.3746217888   -1.6108833429    2.2243155503
H        1.9720927371    0.1755453589   -0.8862898658
H       -0.3197132998   -0.2827848834   -0.0545624649
H        3.9182006345   -0.2334425615    0.5704220273
H       -0.6523632344   -1.1619713160    2.2203744948
H        3.7292278951   -1.3023258555    4.1441346019
H        5.7031018854   -0.3484204848    3.7596833854
H        1.7828111215   -2.6761635677    4.2502557596
H        1.4764809768   -1.0296566276    4.8670569944
H        0.1417290225   -2.0139623783    4.2384454333
H        7.1837090367   -1.7976409364    2.9369326966
H        5.9835833951   -2.5723134892    1.8777781648
H        6.7783386901   -1.0668668664    1.3655521061
22   

C        1.9185470444   -0.2792177171    0.1180783910
C        0.6175603494   -0.5044581608    0.5600911107
C        2.9922745346   -0.4777249907    0.9885303015
C        0.3951519188   -0.9322805170    1.8695710744
C        2.7888643338   -0.8920198415    2.3165916628
C        1.4626671802   -1.1311638477    2.7622515441
C        3.9509288606   -1.0579426601    3.2115149556
C        5.2683485942   -0.7942056483    2.9670551580
C        1.1699986021   -1.6374955978    4.1548038079
C        6.2419611261   -1.5944965357    2.1295795955
H        2.0975844762    0.0528174492   -0.8980912123
H       -0.2197703254   -0.3517120815   -0.1113018415
H        3.9970522336   -0.2908473050    0.6295406816
H       -0.6227374593   -1.1148670202    2.1939423316
H        3.7024829795   -1.1401652524    4.2620709876
H        5.7826867769   -0.4311518967    3.8504579789
H        1.7658407026   -2.5316199251    4.3635695818
H        1.4051346636   -0.8662073490    4.8941114977
H        0.1147202313   -1.9065091336    4.2599190612
H        7.0991396135   -1.9050751413    2.7345600373
H        5.7517626675   -2.4880481822    1.7308901412
H        6.6010205943   -0.9882808049    1.2928644380
22   

C        1.9919673569   -0.3512890490    0.1216099473
C        0.6818366462   -0.5520540685    0.5468038247
C        3.0467211350   -0.5011198049    1.0243200379
C        0.4312208599   -0.9051194138    1.8729804187
C        2.8154364435   -0.8377613234    2.3709119676
C        1.4789071194   -1.0500740861    2.7988859271
C        3.9496860461   -0.9540397934    3.3096488035
C        5.2718480682   -0.8033437466    3.0405424708
C        1.1570626947   -1.4945146469    4.2060273646
C        6.1010109956   -1.6096942927    2.0681300118
H        2.1929484264   -0.0742646233   -0.9068603007
H       -0.1404750805   -0.4389377012   -0.1505038088
H        4.0554269696   -0.3259288824    0.6727614315
H       -0.5931203268   -1.0744728187    2.1838865203
H        3.6916650389   -0.9491000827    4.3613522047
H        5.8576976374   -0.5083942412    3.9044508115
H        1.7690670513   -2.3609090682    4.4765097759
H        1.3489707006   -0.6820277096    4.9126810872
H        0.1070448153   -1.7896812948    4.2922976834
H        6.9748058870   -2.0303992460    2.5747103447
H        5.5086380315   -2.4311322164    1.6530280641
H        6.4431919760   -0.9716300566    1.2481456668
22   

C        2.0318230607   -0.3976591345    0.1298593367
C        0.7172923788   -0.5866971056    0.5445321854
C        3.0749514792   -0.5069384280    1.0515059698
C        0.4505085182   -0.8843964617    1.8805303161
C        2.8291929341   -0.7905430184    2.4091641409
C        1.4859524658   -0.9852450861    2.8259383432
C        3.9408906428   -0.8659347598    3.3788418925
C        5.2662531168   -0.8478981216    3.1106868506
C        1.1455559557   -1.3833241754    4.2426605249
C        5.9805488523   -1.6240643588    2.0322286914
H        2.2454855553   -0.1584865256   -0.9055359543
H       -0.0956660424   -0.5064805722   -0.1681360697
H        4.0821771886   -0.3280901426    0.7008534032
H       -0.5771423957   -1.0472623755    2.1838044386
H        3.6783837162   -0.7999410790    4.4275253146
H        5.8955447459   -0.6303721640    3.9668991390
H        1.7689085068   -2.2266197039    4.5570063749
H        1.3068117400   -0.5416218031    4.9220312855
H        0.1006409129   -1.6986623906    4.3193456101
H        6.8491975541   -2.1383024939    2.4542645811
H        5.3150404285   -2.3739830275    1.5931399214
H        6.3254580635   -0.9468198104    1.2454386554
22   

C        2.0532361015   -0.4245608631    0.1363250301
C        0.7387920367   -0.6099535270    0.5505611390
C        3.0933399340   -0.5002691100    1.0645185488
C        0.4689434947   -0.8668361096    1.8938227003
C        2.8468140678   -0.7478440385    2.4304152912
C        1.5010567105   -0.9316519970    2.8461378682
C        3.9458931223   -0.7887228665    3.4177773021
C        5.2640742623   -0.9128678013    3.1642209043
C        1.1554147084   -1.2960245417    4.2707764805
C        5.8994606687   -1.6321136966    2.0022226780
H        2.2693801911   -0.2112909927   -0.9042124553
H       -0.0715331891   -0.5569305577   -0.1676277071
H        4.0951188518   -0.3100605009    0.7072971156
H       -0.5588432981   -1.0278220219    2.1975475134
H        3.6844609458   -0.6779557384    4.4630510191
H        5.9157739984   -0.7743066612    4.0200492900
H        1.7903445261   -2.1193446893    4.6138005353
H        1.2952974329   -0.4332120285    4.9278561150
H        0.1160092957   -1.6292511328    4.3470411032
H        6.7615279781   -2.2087080893    2.3507378067
H        5.1913938381   -2.3268948071    1.5398375892
H        6.2471296985   -0.9131669790    1.2546083149
22   

C        2.0623249163   -0.4477897159    0.1392232150
C        0.7484247478   -0.6221819555    0.5580311367
C        3.1029780399   -0.5022383437    1.0681326901
C        0.4796059232   -0.8440136004    1.9072696100
C        2.8595696995   -0.7188581567    2.4407434345
C        1.5121781633   -0.8859292606    2.8604959050
C        3.9528406501   -0.7386497734    3.4356488000
C        5.2544893322   -0.9988925713    3.2117394484
C        1.1648809476   -1.2197746821    4.2923594626
C        5.8636128270   -1.6272916029    1.9867068803
H        2.2778354435   -0.2575420195   -0.9059084315
H       -0.0621460399   -0.5865961627   -0.1609562191
H        4.1002410593   -0.3105110026    0.7014238724
H       -0.5481316503   -0.9969753605    2.2152027141
H        3.6918444882   -0.5999875939    4.4777142985
H        5.9039470301   -0.9408330174    4.0784463149
H        1.8023204361   -2.0326542601    4.6551920513
H        1.2988861037   -0.3419917105    4.9304381008
H        0.1271096984   -1.5569766936    4.3734489731
H        6.7300953232   -2.2295328553    2.2758249565
H        5.1486327557   -2.2891573105    1.4884344599
H        6.2044312776   -0.8550444698    1.2908838784
22   

C        2.0580399152   -0.4708704093    0.1385576583
C        0.7446635640   -0.6235656730    0.5660470597
C        3.1021414406   -0.5141042714    1.0641220513
C        0.4798175961   -0.8110226248    1.9209162922
C        2.8641086041   -0.6975869135    2.4429809536
C        1.5158481093   -0.8402237912    2.8709289458
C        3.9580651193   -0.7077045078    3.4381311429
C        5.2327158947   -1.0947516037    3.2469790540
C        1.1697028101   -1.1435552960    4.3099985899
C        5.8574555298   -1.6106930191    1.9790487789
H        2.2707468034   -0.3053276945   -0.9113441011
H       -0.0684503519   -0.5976026092   -0.1504761413
H        4.0964798613   -0.3344438222    0.6852771741
H       -0.5479132564   -0.9485041802    2.2360241429
H        3.6972735057   -0.5527742412    4.4778984065
H        5.8636475371   -1.1161817681    4.1289332400
H        1.8021378457   -1.9539118767    4.6870838530
H        1.3108495822   -0.2546090039    4.9307441702
H        0.1301235001   -1.4728854923    4.3998584462
H        6.7422826830   -2.2058716738    2.2238015948
H        5.1632648739   -2.2583099716    1.4350320500
H        6.1762878955   -0.7792188575    1.3436724271
22   

C        2.0666739921   -0.4308151177    0.1382438807
C        0.7541011049   -0.4527059703    0.5952119150
C        3.0973856577   -0.8965661824    0.9564768584
C        0.4764240702   -0.9472941469    1.8680813367
C        2.8446591691   -1.4084809087    2.2465575105
C        1.4983706873   -1.4360263721    2.7007686843
C        3.9260596001   -1.9396228117    3.1032682177
C        5.2378426250   -1.6446831955    3.0370857067
C        1.1448599840   -1.8744393496    4.1025975828
C        5.8809450618   -0.4963587654    2.3060412440
H        2.2884546562   -0.0637369118   -0.8572490274
H       -0.0485625025   -0.0864108353   -0.0347032137
H        4.0923320108   -0.9057364408    0.5372303294
H       -0.5495118385   -0.9401177861    2.2171776688
H        3.6484403099   -2.5856166451    3.9272027899
H        5.8748661662   -2.1617189518    3.7464668359
H        1.2431480301   -2.9592970547    4.1976084162
H        1.8035599096   -1.3856728972    4.8278370212
H        0.1174944371   -1.5923399850    4.3519762164
H        6.2053916591   -0.8116331045    1.3100349290
H        5.1931765597    0.3508199519    2.2235711677
H        6.7625523220   -0.1576742136    2.8584335678
22   

C        2.0578451807   -0.4464339572    0.1271225287
C        0.7443028873   -0.4557218199    0.5834619645
C        3.0867280158   -0.8957679670    0.9569353401
C        0.4639889771   -0.9185194915    1.8681417302
C        2.8291081864   -1.3790193285    2.2561006250
C        1.4842031669   -1.3893160202    2.7130557898
C        3.9150337739   -1.8907034038    3.1183492119
C        5.2400121978   -1.6998802725    2.9590494615
C        1.1304082722   -1.7994410242    4.1231820152
C        5.9150569331   -0.5078940355    2.3307756808
H        2.2816406400   -0.1003884483   -0.8754186316
H       -0.0571614159   -0.1031152815   -0.0557231451
H        4.0868459210   -0.9091488233    0.5483661149
H       -0.5623021637   -0.9016762559    2.2159260029
H        3.6355029754   -2.5148602337    3.9582905572
H        5.8746140577   -2.2821561413    3.6182840017
H        1.2336332637   -2.8816838478    4.2409225868
H        1.7862888095   -1.2929802381    4.8387056838
H        0.1011331851   -1.5176296210    4.3648331846
H        6.2496769573   -0.7508951885    1.3180235186
H        5.2366819299    0.3502757244    2.2956747722
H        6.7904294626   -0.2239987699    2.9225625797
22   

C        2.0349876402   -0.4684044984    0.1050251048
C        0.7223896761   -0.4754502800    0.5662275997
C        3.0701946115   -0.8830279821    0.9452202559
C        0.4495974482   -0.8976357931    1.8670057546
C        2.8177360668   -1.3290617652    2.2572417952
C        1.4765795627   -1.3313876404    2.7233255207
C        3.9198344465   -1.7996901563    3.1208236859
C        5.2469771090   -1.7224261708    2.8729396210
C        1.1323984364   -1.7067371109    4.1453274885
C        5.9987333743   -0.5274471151    2.3412925180
H        2.2530337235   -0.1486920720   -0.9074667080
H       -0.0843056513   -0.1509831709   -0.0812264274
H        4.0752190190   -0.8898642581    0.5460771792
H       -0.5758300875   -0.8795467813    2.2173475776
H        3.6429819375   -2.3858645360    3.9884351137
H        5.8587105985   -2.3697879262    3.4919148312
H        1.2591342924   -2.7826878608    4.2946042588
H        1.7782953488   -1.1658598468    4.8444653518
H        0.0970997966   -1.4413433482    4.3796115999
H        6.3306776270   -0.7159965849    1.3161467292
H        5.3631582355    0.3635987333    2.3539598166
H        6.8786202678   -0.3325984270    2.9617272600
22   

C        1.9940223263   -0.4921491176    0.0772970139
C        0.6846610970   -0.4949533966    0.5496599404
C        3.0392401131   -0.8688897750    0.9231337350
C        0.4253763458   -0.8716695266    1.8676393260
C        2.7983672414   -1.2711830044    2.2498843775
C        1.4630067343   -1.2645491607    2.7307172171
C        3.9214517437   -1.6985684586    3.1090830210
C        5.2419759419   -1.7308743493    2.7963906330
C        1.1344801113   -1.6018259631    4.1657945682
C        6.1077973731   -0.5631689280    2.3833631955
H        2.2016019963   -0.2030324537   -0.9465226082
H       -0.1301835241   -0.2013478326   -0.1022997691
H        4.0470677745   -0.8719301146    0.5280854641
H       -0.5975948195   -0.8518587794    2.2250686203
H        3.6478374474   -2.2403354468    4.0059249004
H        5.8066429786   -2.4510796238    3.3786302386
H        1.2883139701   -2.6691963183    4.3484360938
H        1.7707498295   -1.0237649468    4.8435638574
H        0.0937002234   -1.3558237295    4.3968045354
H        6.4453319901   -0.6933354907    1.3510369530
H        5.5444923596    0.3724847543    2.4555174628
H        6.9846346398   -0.4940110933    3.0341233082
22   

C        1.9188278031   -0.5510120142    0.0363349022
C        0.6189179013   -0.5408588929    0.5351373297
C        2.9846663635   -0.8682734681    0.8809134304
C        0.3898703441   -0.8431009860    1.8780529447
C        2.7739010709   -1.1922928157    2.2327078900
C        1.4491708173   -1.1712579247    2.7418925278
C        3.9266234170   -1.5531267161    3.0810851179
C        5.2385905003   -1.6996196582    2.7315325726
C        1.1510503645   -1.4469364133    4.1966646632
C        6.2506737079   -0.6176219663    2.4240520013
H        2.1030135690   -0.3167196935   -1.0058195645
H       -0.2123149619   -0.2955433282   -0.1160878540
H        3.9884812851   -0.8780630891    0.4739308624
H       -0.6266521654   -0.8187001874    2.2532063344
H        3.6645458049   -2.0161481751    4.0239935166
H        5.7269573773   -2.4844463197    3.2992464190
H        1.3502038635   -2.4969118397    4.4304280075
H        1.7715086880   -0.8106310577    4.8355794259
H        0.1032828259   -1.2340778965    4.4288371117
H        6.6027957572   -0.7176096913    1.3932616611
H        5.7961217634    0.3704566987    2.5455687105
H        7.1079790116   -0.6948088300    3.0995433716
22   

C        1.8217795024   -0.6071768284   -0.0008131522
C        0.5370081142   -0.5838367823    0.5358096964
C        2.9150297437   -0.8738474391    0.8260580624
C        0.3505851768   -0.8214803940    1.8983434845
C        2.7473863716   -1.1288996072    2.1976765631
C        1.4384074413   -1.0948497946    2.7457341927
C        3.9329503842   -1.4362005917    3.0214303385
C        5.2415866369   -1.6451174488    2.6562640925
C        1.1842033925   -1.3168851153    4.2179296215
C        6.3814341860   -0.6558966561    2.5141390567
H        1.9729510901   -0.4219064699   -1.0580445200
H       -0.3156726934   -0.3795076246   -0.1016889238
H        3.9084471123   -0.8934729141    0.3938753859
H       -0.6551717451   -0.7919874089    2.3011374753
H        3.6986208331   -1.8204887048    4.0058451040
H        5.6471387134   -2.5062442753    3.1767714797
H        1.4272815644   -2.3481178966    4.4909811617
H        1.7955522902   -0.6318521938    4.8135844488
H        0.1345317906   -1.1341128346    4.4664389816
H        6.7810287858   -0.6910572070    1.4965426107
H        6.0261482934    0.3591288172    2.7162311076
H        7.1849323186   -0.8929030213    3.2180859600
