34

C      7.82899   -0.59444   -1.95140
C      6.69265   -0.69442    0.11763
C      8.52670   -0.78586   -3.27640
C     -0.79710   -0.75693    2.16842
C     11.46848   -1.27296   -4.56273
C      0.62503   -1.03974    2.66457
C      1.69586   -0.71275    1.61678
C      3.11880   -1.01316    2.10775
C     10.19632   -2.12283   -4.50155
C      4.16236   -0.67708    1.04613
N      7.56152    0.59183   -1.46931
N      6.91117    0.52913   -0.26443
N      9.38339   -1.85249   -3.31330
O      8.29172   -0.05586   -4.22995
O      5.88836   -2.67163    1.69024
S      7.28188   -1.93121   -0.95695
S      5.84251   -1.15567    1.65725
H     -0.92082    0.29909    1.90218
H     -1.03101   -1.35263    1.27866
H     -1.54100   -0.99689    2.93530
H     11.21522   -0.20986   -4.58341
H     12.11361   -1.46187   -3.69773
H     12.03716   -1.50991   -5.46815
H      0.71170   -2.09563    2.95115
H      0.81955   -0.45768    3.57469
H      1.61872    0.34578    1.33449
H      1.49865   -1.29045    0.70394
H      3.20142   -2.07384    2.36919
H      3.32193   -0.43958    3.02092
H     10.43703   -3.19029   -4.49930
H      9.56589   -1.92374   -5.37019
H      4.21138    0.39280    0.82031
H      4.00017   -1.24044    0.12198
H      9.68834   -2.24985   -2.43302
