17   

C        5.9158526841    0.1245273610   -0.8427780814
C        4.6764425716   -0.6282312984   -1.0436197808
C        5.9741702086    1.0500017384    0.1689356500
C        3.5816452153   -0.4470019345   -0.2372720023
C        4.8146110955    1.2603939022    1.0111348988
C        2.2659951024   -1.1421536125   -0.4086026817
C        2.1075663123   -2.3280739912   -1.3497746206
N        3.6763792083    0.5186240529    0.7948187613
O        4.8242487902    2.0843543247    1.9084078118
O        1.2844112229   -0.7092932295    0.1842437942
H        6.7741298245   -0.0417741185   -1.4858060923
H        4.6406092500   -1.3400588057   -1.8607804892
H        6.8598161406    1.6392528298    0.3624036008
H        2.8164947447   -3.1141602535   -1.0769293569
H        2.2903034723   -2.0123376123   -2.3800254150
H        1.0919096680   -2.7272937179   -1.2764241044
H        2.8787441176    0.7381196016    1.3833185917
17   

C        5.9079758108    0.1528455189   -0.8595963450
C        4.6589055294   -0.5745044709   -1.0908287193
C        5.9890300506    1.0089886094    0.2099307633
C        3.5834660551   -0.4497416214   -0.2487894074
C        4.8432113696    1.1730502007    1.0809078087
C        2.2471792405   -1.0928431639   -0.4736933631
C        2.1024917349   -2.3407605295   -1.3332123792
N        3.6987517677    0.4483552417    0.8404184557
O        4.8687125484    1.9445773782    2.0233386753
O        1.2419971995   -0.5386245452   -0.0465966649
H        6.7539936854    0.0251092635   -1.5272143561
H        4.5971803004   -1.2172830312   -1.9618597542
H        6.8814273616    1.5797380189    0.4264563148
H        2.7448896562   -3.1339391367   -0.9416895486
H        2.3837873566   -2.1193721157   -2.3656281306
H        1.0646413819   -2.6854944330   -1.3153284272
H        2.9025023833    0.6663276831    1.4308949732
17   

C        5.8956794477    0.2012242241   -0.9323426043
C        4.6328663803   -0.5018082196   -1.1635495827
C        6.0321093542    0.9650033705    0.1996984127
C        3.6045282893   -0.4538555016   -0.2576512753
C        4.9292435077    1.0586864287    1.1343429829
C        2.2465296070   -1.0559567065   -0.4933323175
C        2.0801137343   -2.3589366981   -1.2641299119
N        3.7723291307    0.3541387347    0.8932990836
O        5.0007324592    1.7538586406    2.1321775785
O        1.2512824461   -0.4054407909   -0.2061265544
H        6.7073704717    0.1300825840   -1.6491910941
H        4.5223761719   -1.0566324353   -2.0881626896
H        6.9363006852    1.5157769638    0.4190058808
H        2.4656407206   -3.1878948143   -0.6647097566
H        2.6183386006   -2.3175312814   -2.2132726533
H        1.0206113380   -2.5352267792   -1.4706384884
H        3.0021199011    0.5467403133    1.5249790203
17   

C        5.8836048434    0.2582771326   -0.9781685670
C        4.6132479791   -0.4209492860   -1.2363174634
C        6.0403654243    0.9450693024    0.1999192713
C        3.6013425379   -0.4282471819   -0.3126142550
C        4.9507420110    0.9836341866    1.1544784281
C        2.2352875803   -1.0068648768   -0.5900788114
C        2.0829500256   -2.3860541716   -1.2177772942
N        3.7851251903    0.3038043354    0.8852696628
O        5.0406460347    1.6093744940    2.1958092799
O        1.2549137168   -0.2830536710   -0.5134046149
H        6.6840318551    0.2309555154   -1.7105186916
H        4.4775915374   -0.9081791019   -2.1955172954
H        6.9508767713    1.4757122903    0.4415782336
H        2.1350203649   -3.1464210242   -0.4341096629
H        2.8756253447   -2.5722959500   -1.9452986951
H        1.1154826522   -2.4614490461   -1.7219911983
H        3.0271781952    0.4674679047    1.5387448964
17   

C        5.8667985253    0.3797690613   -1.0421631162
C        4.5899982013   -0.2778304771   -1.3226331220
C        6.0452711627    0.9858677245    0.1765769760
C        3.5912782317   -0.3358162693   -0.3893739771
C        4.9707080381    0.9642390457    1.1489357081
C        2.2241240464   -0.9227172934   -0.6800819235
C        2.0871997082   -2.3889295876   -1.0619825924
N        3.7946285175    0.3145489539    0.8516441722
O        5.0829364657    1.5082804301    2.2330728142
O        1.2725267753   -0.1776292616   -0.8361910436
H        6.6554700526    0.3967827261   -1.7874539937
H        4.4330510958   -0.7154091093   -2.3028997933
H        6.9627091116    1.4942573670    0.4390114608
H        2.0415930423   -2.9963323253   -0.1542778362
H        2.9447126462   -2.7071748428   -1.6596920158
H        1.1718146958   -2.5417037616   -1.6403297894
H        3.0560015250    0.4288771972    1.5362879114
17   

C        5.8226425111    0.5267123726   -1.1289764228
C        4.5511075813   -0.1149899769   -1.4645072484
C        6.0047936724    1.0086906716    0.1435061834
C        3.5478537131   -0.2468975202   -0.5457813942
C        4.9392050594    0.8744947055    1.1166447947
C        2.2190782802   -0.9123643688   -0.8553202577
C        2.0182861945   -2.3859428971   -0.5403870310
N        3.7625082081    0.2562236668    0.7605467601
O        5.0612207033    1.2864817298    2.2564298945
O        1.2871430145   -0.2533364983   -1.2786800561
H        6.6064898705    0.6226370716   -1.8733915013
H        4.4000442671   -0.4877267550   -2.4723872049
H        6.9207749054    1.4943043309    0.4504432860
H        2.4318457865   -2.6153894117    0.4450661674
H        2.5294669226   -2.9925638270   -1.2923497251
H        0.9520865644   -2.6290816360   -0.5468233010
H        3.0419975799    0.2703974541    1.4728272498
17   

C        5.7974477289    0.6506571788   -1.1635240468
C        4.5367766902    0.0094347126   -1.5381775611
C        5.9881568884    1.0202808867    0.1447198016
C        3.5413465505   -0.2103252775   -0.6269185319
C        4.9418559837    0.7708846350    1.1158265459
C        2.2620803939   -0.9397178983   -0.9788140454
C        1.9375430405   -2.2635671647   -0.3017827038
N        3.7713703646    0.1649680709    0.7202570164
O        5.0751539273    1.0698107564    2.2890555987
O        1.3949635532   -0.3917246713   -1.6356852497
H        6.5680654476    0.8293694906   -1.9064984140
H        4.3862087514   -0.2948693082   -2.5691206562
H        6.8983819866    1.4962996326    0.4823002559
H        2.2958955002   -2.2635482486    0.7304264046
H        2.4260995561   -3.0759415070   -0.8462309912
H        0.8570099633   -2.4316778394   -0.3049487017
H        3.0720932143    0.0819103423    1.4483974011
17   

C        5.7613809244    0.7972049131   -1.1484604794
C        4.5144051611    0.1466355658   -1.5509756486
C        5.9762121887    1.0477601802    0.1842007299
C        3.5492855179   -0.1866642816   -0.6395001967
C        4.9682039729    0.6668948059    1.1535460882
C        2.3169975310   -0.9543562677   -1.0464371933
C        1.8921683148   -2.1857409562   -0.2586609032
N        3.8063256800    0.0616425346    0.7321986487
O        5.1269797815    0.8520278693    2.3468891154
O        1.5514733184   -0.5003881308   -1.8801609597
H        6.5041402995    1.0728351554   -1.8901837049
H        4.3485792425   -0.0744739234   -2.6009231518
H        6.8792940518    1.5221494650    0.5426209164
H        1.7519783364   -1.9335090153    0.7949060994
H        2.6626116782   -2.9566196568   -0.3452722216
H        0.9532028386   -2.5790755270   -0.6585911544
H        3.1428593541   -0.1355529006    1.4713358292
17   

C        5.7522456520    0.8922232890   -1.1352170481
C        4.5300369650    0.2111095919   -1.5620081477
C        5.9808251410    1.0607472229    0.2081129541
C        3.5998078717   -0.2308578743   -0.6592301219
C        5.0117641564    0.5645840906    1.1651442115
C        2.4004493313   -1.0193468075   -1.1057766625
C        1.8642864337   -2.1568182784   -0.2480648777
N        3.8709442680   -0.0650536307    0.7223851336
O        5.1850368530    0.6741011933    2.3657775919
O        1.7582558882   -0.6634972888   -2.0813397249
H        6.4662875845    1.2538405663   -1.8681549672
H        4.3548406158    0.0546219532   -2.6222556889
H        6.8673351566    1.5528060959    0.5836633155
H        1.4180207187   -1.7586379194    0.6663499344
H        2.6792184940   -2.8382889642    0.0108496999
H        1.1041341300   -2.7136737805   -0.8034579358
H        3.2407285150   -0.3590954927    1.4583047194
17   

C        5.7388545776    0.9568488709   -1.1176596873
C        4.5306667650    0.2565790621   -1.5532354355
C        6.0049219750    1.0442379606    0.2264711012
C        3.6525239341   -0.2904090779   -0.6549309504
C        5.0887125302    0.4446217884    1.1761556808
C        2.4539807443   -1.0677588776   -1.1180386673
C        1.8005007520   -2.1018946158   -0.2114745629
N        3.9606886690   -0.2028118596    0.7264084463
O        5.2935387876    0.4857957951    2.3761114139
O        1.9254363648   -0.7978429940   -2.1860423422
H        6.4128731568    1.3969574457   -1.8455466000
H        4.3259668955    0.1719654913   -2.6165007344
H        6.8827873525    1.5473687245    0.6076010072
H        1.3527020714   -1.6100243312    0.6555184258
H        2.5492466851   -2.8247323769    0.1236529892
H        1.0189515842   -2.6351634260   -0.7603510247
H        3.3723911218   -0.5784479238    1.4597910216
17   

C        5.7067592480    1.0081272834   -1.1239320004
C        4.5285726370    0.2636271177   -1.5683312255
C        5.9966836868    1.0499395830    0.2173458993
C        3.7054487251   -0.3787117590   -0.6805186374
C        5.1342482188    0.3600191475    1.1556999949
C        2.5197847827   -1.1718559100   -1.1493680730
C        1.7701013773   -2.0938231927   -0.1968909334
N        4.0334580227   -0.3276549479    0.6983750249
O        5.3584590157    0.3637757078    2.3528862150
O        2.1089247694   -1.0374983989   -2.2928067971
H        6.3400594857    1.5167453790   -1.8436943469
H        4.3054338747    0.2233261701   -2.6305162870
H        6.8541333393    1.5830185763    0.6041919968
H        1.3201802870   -1.5104023223    0.6103914628
H        2.4586404820   -2.8319887427    0.2228916645
H        0.9775564574   -2.6198967037   -0.7369283264
H        3.4866273225   -0.7728654267    1.4248337558
17   

C        5.6717645238    1.0639869353   -1.1340210408
C        4.5259456542    0.2763829557   -1.5887287339
C        5.9832864778    1.0694228266    0.2030782543
C        3.7611081864   -0.4517666124   -0.7150190569
C        5.1749325420    0.2996605122    1.1273709009
C        2.5868448279   -1.2571693550   -1.1917704492
C        1.7421274219   -2.0633437978   -0.2139985199
N        4.1046674053   -0.4287646665    0.6608391327
O        5.4152190031    0.2758500909    2.3212040974
O        2.2979993940   -1.2712463204   -2.3796747577
H        6.2640296978    1.6334474630   -1.8430738036
H        4.2820115771    0.2740338856   -2.6470954206
H        6.8181033040    1.6324858605    0.5968809955
H        1.2978107494   -1.3974643387    0.5303583377
H        2.3637061489   -2.8108476910    0.2857627693
H        0.9393074792   -2.5756258629   -0.7521274031
H        3.5985470306   -0.9344671861    1.3771266015
17   

C        5.6032451978    1.1133719589   -1.1463754822
C        4.4926711631    0.2748161843   -1.5973546048
C        5.9437671632    1.1025944122    0.1836728695
C        3.7972412227   -0.5256767852   -0.7290774165
C        5.1999645186    0.2661087190    1.1043619207
C        2.6353004122   -1.3529533395   -1.1978756225
C        1.7039661534   -2.0278517932   -0.1997276673
N        4.1628119901   -0.5107023994    0.6410694297
O        5.4626640686    0.2322448004    2.2932219863
O        2.4609359928   -1.5396935368   -2.3933267147
H        6.1464572239    1.7334586042   -1.8522293024
H        4.2182224869    0.2912824474   -2.6481039592
H        6.7541473893    1.7020611309    0.5747766438
H        1.2736686882   -1.2789593197    0.4704922001
H        2.2562755265   -2.7688177864    0.3837460334
H        0.8915807204   -2.5310134792   -0.7320560991
H        3.7051768151   -1.0663145613    1.3530007618
17   

C        6.2646319830   -0.1042235305   -0.0290528092
C        5.2016605974   -1.0996667743   -0.1668776868
C        5.9218047588    1.2224923106    0.0570075695
C        3.8791654531   -0.7420714901   -0.1881625351
C        4.5240693687    1.6032848232    0.0099281247
C        2.8031174041   -1.7669852026   -0.4035259428
C        1.4439603081   -1.3619627315   -0.9576297340
N        3.5532279775    0.6360892479   -0.1161054843
O        4.1763981108    2.7692028852    0.0673827761
O        2.9716906851   -2.9186865758   -0.0316716827
H        7.3052977586   -0.4106083492    0.0019450083
H        5.4707813073   -2.1484263580   -0.2521760737
H        6.6633432893    2.0028972583    0.1576896099
H        1.5750020497   -0.8266785206   -1.9019422813
H        0.9240707868   -0.7201852368   -0.2421095322
H        0.8375004989   -2.2536347228   -1.1409027776
H        2.6055445391    0.9922088678   -0.1270280585
17   

C        6.2553275692   -0.1198955134   -0.0979000921
C        5.1842672215   -1.1105400017   -0.2042676826
C        5.9202005424    1.2013252080    0.0671761911
C        3.8645757574   -0.7562803635   -0.1116008681
C        4.5227506599    1.5807199290    0.1331985964
C        2.7738708443   -1.7682767120   -0.3256359304
C        1.4848103199   -1.3727978881   -1.0319643825
N        3.5450867676    0.6170872632    0.0355545760
O        4.1810198909    2.7431553823    0.2577052791
O        2.8478610604   -2.8717291498    0.1917436240
H        7.2954626458   -0.4247902618   -0.1524811345
H        5.4427601963   -2.1540492078   -0.3578150087
H        6.6673364420    1.9786783659    0.1482315868
H        1.7204097764   -0.8774896123   -1.9778585942
H        0.9041184876   -0.6956665776   -0.4009766382
H        0.8881844071   -2.2651352822   -1.2420892207
H        2.5989187772    0.9690112358    0.1138223984
17   

C        6.2272841892   -0.1397056863   -0.1880338080
C        5.1392162191   -1.1153863634   -0.2540694984
C        5.9213873078    1.1763650115    0.0554924847
C        3.8350699803   -0.7546262144   -0.0481453543
C        4.5375585383    1.5645797050    0.2428005055
C        2.7100581202   -1.7427273109   -0.2256238851
C        1.4988513488   -1.3740092144   -1.0708489029
N        3.5443999389    0.6141728040    0.1780784640
O        4.2202288664    2.7237618672    0.4406646610
O        2.6670714108   -2.7597157670    0.4460183003
H        7.2568262675   -0.4509576591   -0.3328864110
H        5.3726997444   -2.1537721481   -0.4685877848
H        6.6814911679    1.9432548219    0.1119656493
H        1.8119100975   -1.2187110617   -2.1068097484
H        1.0360302187   -0.4592827973   -0.6935574701
H        0.7634314650   -2.1831125352   -1.0421902771
H        2.6123741133    0.9668863073    0.3578511451
17   

C        6.1992289098   -0.1559833720   -0.3371956748
C        5.0916882610   -1.1108512265   -0.3862459378
C        5.9370163369    1.1430936354    0.0208537827
C        3.8129150645   -0.7479914620   -0.0658629252
C        4.5790735028    1.5338973786    0.3423260055
C        2.6433006371   -1.7024542371   -0.1830686826
C        1.5192745887   -1.4027287774   -1.1643632769
N        3.5669482303    0.6034574731    0.2828862285
O        4.3002422127    2.6786230239    0.6512765073
O        2.4842602734   -2.5917580194    0.6338754262
H        7.2093640192   -0.4692111548   -0.5807391334
H        5.2924772999   -2.1364183815   -0.6795261074
H        6.7130219841    1.8941434219    0.0738162599
H        1.7919177479   -1.7841664523   -2.1519033397
H        1.3502012264   -0.3255764665   -1.2352573541
H        0.5959406513   -1.8886802717   -0.8370591868
H        2.6609090579    0.9457804458    0.5795018973
17   

C        6.1504563905   -0.1305797937   -0.4545304952
C        5.0176085293   -1.0558283334   -0.4961741938
C        5.9448325383    1.1465283609    0.0052459185
C        3.7670383238   -0.6799469887   -0.0927472970
C        4.6202949341    1.5441456463    0.4388000927
C        2.5672923993   -1.6092903455   -0.1280453662
C        1.6352313368   -1.5977826447   -1.3289053074
N        3.5813764919    0.6440382434    0.3744910866
O        4.3951398593    2.6679775213    0.8511569606
O        2.3018030336   -2.3047498404    0.8352369586
H        7.1360948466   -0.4490027566   -0.7784071198
H        5.1790250027   -2.0691552225   -0.8492850455
H        6.7424115639    1.8743540755    0.0617238834
H        2.1056435185   -2.1282519272   -2.1608051180
H        1.4315180351   -0.5674580286   -1.6317716924
H        0.6919057697   -2.0900358734   -1.0763930085
H        2.7072684595    0.9746143929    0.7660712550
17   

C        6.0831790653   -0.0515924062   -0.5977125235
C        4.9153904775   -0.9320337403   -0.6467508212
C        5.9518571650    1.1906325459   -0.0283450979
C        3.6942522182   -0.5328527904   -0.1762688428
C        4.6694888416    1.5967896639    0.5113127832
C        2.4901168763   -1.4522332948   -0.1241555236
C        1.9160248227   -2.0330224569   -1.4077033387
N        3.5919720308    0.7453416028    0.4238861509
O        4.5180231553    2.6826211794    1.0423080878
O        2.1296882091   -1.9088465759    0.9467050932
H        7.0387115590   -0.3778202904   -0.9955627609
H        5.0319140212   -1.9305935819   -1.0545871375
H        6.7797578976    1.8822657341    0.0441093785
H        2.7169997663   -2.2442234503   -2.1202271441
H        1.2247723886   -1.3128127126   -1.8531313719
H        1.3764414981   -2.9592390924   -1.1915199026
H        2.7590782060    1.0552834986    0.9113274322
17   

C        6.0148579837   -0.0062228341   -0.7115386376
C        4.8362524857   -0.8712264875   -0.7783134840
C        5.9152520669    1.2007326678   -0.0653765410
C        3.6299478674   -0.4837633315   -0.2568374593
C        4.6540258199    1.5879336964    0.5341025392
C        2.4285075552   -1.3949924198   -0.1932650926
C        1.9893867125   -2.1960737691   -1.4118094369
N        3.5623491286    0.7582335312    0.4194925858
O        4.5358584206    2.6361276235    1.1434718941
O        1.9368128236   -1.6581980057    0.8929816472
H        6.9555360792   -0.3182975955   -1.1536937553
H        4.9421882534   -1.8482805290   -1.2365722619
H        6.7539734018    1.8768320870    0.0265192031
H        2.8532003260   -2.5275478737   -1.9916842995
H        1.3559163030   -1.5699332307   -2.0455811092
H        1.4183603729   -3.0733795235   -1.0953077232
H        2.7488593827    1.0354950966    0.9576913848
17   

C        5.9795687727    0.0335299182   -0.7635438224
C        4.7850138696   -0.8075839255   -0.8528403173
C        5.9170662947    1.2002523730   -0.0435898323
C        3.5972790777   -0.4367718741   -0.2765392429
C        4.6777900884    1.5703980509    0.6089656991
C        2.3735758340   -1.3102375635   -0.2338681400
C        2.0197152595   -2.2359099542   -1.3903638390
N        3.5701778096    0.7660396642    0.4706028446
O        4.5938321155    2.5805346920    1.2847054528
O        1.7457838108   -1.4009038984    0.8119685009
H        6.9034968659   -0.2650468438   -1.2482959276
H        4.8666472744   -1.7513781549   -1.3796587960
H        6.7691368803    1.8565090878    0.0673669577
H        2.8798506651   -2.8459397642   -1.6737466659
H        1.6997800106   -1.6394560822   -2.2488462078
H        1.2016655803   -2.9000669634   -1.0971755904
H        2.7690106318    1.0218586661    1.0380756775
17   

C        5.9502672706    0.0838742383   -0.8286888336
C        4.7376686839   -0.7309315204   -0.9200157073
C        5.9388409093    1.2040548943   -0.0358371707
C        3.5838576038   -0.3849710869   -0.2639081742
C        4.7341169985    1.5530479357    0.6890459051
C        2.3375478922   -1.2189739994   -0.2410791133
C        2.0390492208   -2.2291789316   -1.3398850982
N        3.6094282703    0.7726212731    0.5518081030
O        4.6953375487    2.5239405063    1.4238544134
O        1.6022919691   -1.1609443702    0.7366537706
H        6.8472604871   -0.1968064597   -1.3712746884
H        4.7742017906   -1.6339745307   -1.5190721300
H        6.8060066232    1.8397037841    0.0781230857
H        2.7903092465   -3.0226629199   -1.3332451211
H        2.0449622270   -1.7287107501   -2.3117880879
H        1.0530180273   -2.6737496215   -1.1774325032
H        2.8240937167    1.0162169271    1.1468566934
17   

C        5.9213971932    0.1137346440   -0.8343044373
C        4.7104396486   -0.6967258578   -0.9751631210
C        5.9203704194    1.1604206825    0.0533105306
C        3.5717258454   -0.4260322904   -0.2598670717
C        4.7276692738    1.4388089005    0.8266488562
C        2.3128572554   -1.2359473146   -0.3117005409
C        2.0916780668   -2.2970950034   -1.3805075743
N        3.6075656980    0.6601363032    0.6487721824
O        4.6952614639    2.3488087391    1.6359375873
O        1.4661278265   -1.0745732063    0.5597979753
H        6.8082998712   -0.1112890036   -1.4178714366
H        4.7357780394   -1.5331520409   -1.6647196736
H        6.7858872310    1.7905731354    0.2043269733
H        2.8260034207   -3.0985133843   -1.2664944313
H        2.1903891072   -1.8490370148   -2.3727060056
H        1.0877047819   -2.7197752496   -1.2820591389
H        2.8155615038    0.8692135607    1.2485688475
17   

C        5.9368578035    0.0968570603   -0.8680474182
C        4.7048948049   -0.6775506742   -1.0288789046
C        5.9794922079    1.0878035788    0.0804131193
C        3.5948888381   -0.4396215293   -0.2587513919
C        4.8110673750    1.3443254908    0.8970161791
C        2.2999404417   -1.1843748567   -0.3600517874
C        2.1025308520   -2.3101231971   -1.3656440002
N        3.6753594819    0.5908653369    0.7100472362
O        4.8120257340    2.2155216219    1.7485602990
O        1.3782794544   -0.8762857794    0.3874910119
H        6.8036265796   -0.1080673769   -1.4881276729
H        4.6894799763   -1.4564335909   -1.7830818312
H        6.8606223583    1.6923884769    0.2450442751
H        2.8228711297   -3.1094856376   -1.1735855707
H        2.2407321391   -1.9291346353   -2.3807803061
H        1.0909881825   -2.7161814689   -1.2749202592
H        2.8848858800    0.8109928116    1.3080686639
