18   

C        4.6331489460    1.3459722671    0.7538183096
C        5.8139907185    1.1162717116    0.0578439160
C        3.5008874128    0.5758692131    0.4819786556
C        5.8525191704    0.1176164137   -0.9129831824
C        3.5148812075   -0.4449182471   -0.4880718959
C        4.7243040728   -0.6614946656   -1.1988640901
C        2.2836726517   -1.2595635898   -0.7409971179
C        0.9255131706   -0.7892421844   -0.2311504760
O        2.3102354744   -2.3131859061   -1.3628699842
O        4.8394502398   -1.6001087161   -2.1827804540
H        4.5933087750    2.1217186275    1.5103739266
H        6.6964253865    1.7112887911    0.2677202385
H        2.6063407838    0.7855760574    1.0569106720
H        6.7762154337   -0.0470308323   -1.4536463013
H        0.7670970037    0.2586430316   -0.4992967314
H        0.8758646805   -0.9036685258    0.8547635693
H        0.1296915244   -1.3874176688   -0.6844092638
H        5.7506973798   -1.6457513825   -2.5119243802
18   

C        4.6560720155    1.3455002906    0.7980864820
C        5.8087066703    1.1619622173    0.0407735119
C        3.5350944513    0.5453601376    0.5677991315
C        5.8294911354    0.1814569078   -0.9507643839
C        3.5390812337   -0.4554416673   -0.4197620245
C        4.7108291641   -0.6248424382   -1.1941939819
C        2.3294741382   -1.3189268933   -0.6179731070
C        0.9406437310   -0.7750285218   -0.3057241505
O        2.4123600260   -2.4711546229   -1.0185709282
O        4.7846255043   -1.5399449377   -2.2039745213
H        4.6309738211    2.1060786865    1.5704842885
H        6.6827894935    1.7791406611    0.2191880243
H        2.6587921202    0.7057303520    1.1858787977
H        6.7286194443    0.0543170927   -1.5406949800
H        0.8585711044    0.2596013134   -0.6492619349
H        0.7583991716   -0.8184452550    0.7710677190
H        0.1829331318   -1.3739967245   -0.8189725705
H        5.6888865914   -1.5978300518   -2.5507693652
18   

C        4.7236058606    1.2900806862    0.8579608786
C        5.8289614380    1.1404001329    0.0240818090
C        3.5968832321    0.4855203685    0.6732469358
C        5.7968164711    0.1891055432   -0.9967348816
C        3.5526894013   -0.4797736068   -0.3443829146
C        4.6707239967   -0.6193332092   -1.1921516005
C        2.3474367075   -1.3659700565   -0.4960315700
C        0.9502040521   -0.7750503099   -0.3656897687
O        2.4567350047   -2.5681761037   -0.6810882383
O        4.6741181397   -1.5111447819   -2.2252948045
H        4.7408016608    2.0260546840    1.6540196984
H        6.7074982524    1.7604686399    0.1669970955
H        2.7546132531    0.6093641771    1.3450198101
H        6.6581160963    0.0867103904   -1.6450197053
H        0.8937600010    0.1644803116   -0.9218805146
H        0.7197858145   -0.5888424407    0.6860964836
H        0.2119788193   -1.4706903928   -0.7747292792
H        5.5609874240   -1.5831981112   -2.6129038859
18   

C        4.7769615933    1.2316690363    0.9525418298
C        5.8308166077    1.1371717576    0.0451625491
C        3.6523811039    0.4162228940    0.8024124374
C        5.7505627127    0.2283879934   -1.0123180077
C        3.5638512259   -0.4991184923   -0.2538192506
C        4.6258028520   -0.5893715297   -1.1706775656
C        2.3643005783   -1.4049516050   -0.3769963154
C        0.9631906693   -0.8087623178   -0.4041813917
O        2.4840695210   -2.6188476484   -0.3551165292
O        4.5692325227   -1.4487951563   -2.2294477212
H        4.8335868072    1.9317160764    1.7785918677
H        6.7073851491    1.7655606070    0.1612313170
H        2.8511565338    0.4895706218    1.5296132211
H        6.5719453835    0.1659715029   -1.7151802330
H        0.7939810554   -0.3288129324   -1.3717159784
H        0.8460015075   -0.0657396546    0.3877127537
H        0.2178471313   -1.5966133244   -0.2633218645
H        5.4326238420   -1.5044311725   -2.6700833995
18   

C        4.8386257285    1.1837745900    1.0318077245
C        5.8391248319    1.1234479553    0.0622275899
C        3.7104653072    0.3667376636    0.9204153735
C        5.7020285634    0.2466482933   -1.0169377709
C        3.5680907327   -0.5143591444   -0.1557819405
C        4.5729332443   -0.5718901963   -1.1338144219
C        2.3581691156   -1.4159331338   -0.2556184048
C        0.9906649174   -0.8060596052   -0.5242997760
O        2.4380934431   -2.6069932263   -0.0090216900
O        4.4535330663   -1.4055747918   -2.2079335939
H        4.9388035485    1.8590086893    1.8741959404
H        6.7180228737    1.7535686126    0.1470482730
H        2.9441390742    0.4108631977    1.6870672284
H        6.4818007212    0.2098619422   -1.7673926227
H        0.9020946185   -0.5743587405   -1.5889998264
H        0.8687357012    0.1144999059    0.0517290359
H        0.2026521636   -1.5106233052   -0.2442694240
H        5.2844427552   -1.4338336184   -2.7101020121
18   

C        4.9142367421    1.1369592992    1.1193396099
C        5.8512057801    1.1056343527    0.0868139512
C        3.7790521339    0.3245279131    1.0545416343
C        5.6429454378    0.2631489514   -1.0082885077
C        3.5701342767   -0.5278990587   -0.0328433599
C        4.5065762704   -0.5506182645   -1.0771576561
C        2.3326806703   -1.3957109205   -0.1114142168
C        1.0784385227   -0.8460171788   -0.7723218494
O        2.3184521221   -2.5209620057    0.3569035494
O        4.3134659482   -1.3497972547   -2.1669313365
H        5.0674404881    1.7880053993    1.9727147914
H        6.7346539440    1.7333022147    0.1344140387
H        3.0568449977    0.3492430081    1.8638800116
H        6.3722999529    0.2506648720   -1.8085870979
H        1.2779999971   -0.6567861192   -1.8303911633
H        0.7866787685    0.0903334686   -0.2900630007
H        0.2598381463   -1.5659179929   -0.6856036312
H        5.1000016910   -1.3407320635   -2.7372606514
18   

C        4.9701237319    1.0775133717    1.1664757509
C        5.8557073054    1.0796481757    0.0891757341
C        3.8243295764    0.2788919426    1.1243309099
C        5.5867961964    0.2831552170   -1.0270884495
C        3.5543983572   -0.5279086104    0.0145702431
C        4.4399971019   -0.5176555786   -1.0743652657
C        2.2910481144   -1.3567723676   -0.0306313630
C        1.1372966975   -0.9255119360   -0.9244359744
O        2.1822206524   -2.3746476185    0.6332516641
O        4.1962936938   -1.2792286760   -2.1808200839
H        5.1704861920    1.6926066358    2.0365915650
H        6.7469363215    1.6973332190    0.1191521181
H        3.1399477801    0.2782805342    1.9664977353
H        6.2787044795    0.2955176166   -1.8599786485
H        1.4640924462   -0.9008024030   -1.9669945271
H        0.8001117179    0.0722190062   -0.6322969728
H        0.3044936143   -1.6277941178   -0.8292785223
H        4.9509528618   -1.2383923363   -2.7917704648
18   

C        5.0275439221    1.0331201212    1.1988496262
C        5.8693797840    1.0699346375    0.0873066715
C        3.8679040532    0.2546136141    1.1683375815
C        5.5444626890    0.3277477645   -1.0519107427
C        3.5428392847   -0.4978245275    0.0325380724
C        4.3838304947   -0.4537562740   -1.0906134038
C        2.2553888184   -1.2841796603    0.0325155930
C        1.1591129172   -0.9687911042   -0.9756944796
O        2.0621335897   -2.1526924064    0.8700791312
O        4.0927669067   -1.1675914061   -2.2168891895
H        5.2720953546    1.6059341858    2.0863599454
H        6.7711740567    1.6724441044    0.1090976346
H        3.2161623856    0.2267323066    2.0359150057
H        6.2053686118    0.3665628615   -1.9088113701
H        1.4157838814   -1.3922632089   -1.9496846799
H        1.0486530841    0.1141996901   -1.0734575623
H        0.2091334733   -1.3948459913   -0.6416949299
H        4.8195655299   -1.0957417978   -2.8582405934
18   

C        5.0238362061    0.8999920437    1.2659797357
C        5.8416194917    0.9702152999    0.1386766023
C        3.8345499052    0.1689903836    1.2190311664
C        5.4646540418    0.3073211840   -1.0328081430
C        3.4536816969   -0.5034781805    0.0479737210
C        4.2747116032   -0.4279479614   -1.0907943510
C        2.1348636819   -1.2265628262    0.0548249545
C        1.1353179260   -1.0626734003   -1.0823055066
O        1.8274942007   -1.9241431991    1.0129604984
O        3.9434472994   -1.0671396088   -2.2503999488
H        5.3089641593    1.4111590099    2.1786758903
H        6.7657756828    1.5371827800    0.1735390034
H        3.2018534656    0.1189402909    2.0999340460
H        6.1098014760    0.3710746299   -1.9001600593
H        1.3051681217   -1.8365741554   -1.8352860587
H        1.2542596914   -0.0793809229   -1.5448701496
H        0.1156782271   -1.1523486503   -0.6980621766
H        4.6519625606   -0.9606614932   -2.9073073929
18   

C        5.0770858762    0.8538708461    1.2798328033
C        5.8709490102    0.9418145426    0.1379458679
C        3.8596999682    0.1714424311    1.2314795050
C        5.4437161220    0.3423582258   -1.0495379856
C        3.4201689122   -0.4326382186    0.0407205300
C        4.2257620097   -0.3456371298   -1.1122392305
C        2.0824425880   -1.1168180306    0.0737127527
C        1.1450247202   -1.1282066181   -1.1274519337
O        1.6868705618   -1.6163858788    1.1214236485
O        3.8643381411   -0.9313094627   -2.2907165844
H        5.4021334979    1.3140638057    2.2062138753
H        6.8168006362    1.4716843325    0.1745174192
H        3.2517159315    0.1132797433    2.1292577720
H        6.0745881822    0.4160725531   -1.9265514045
H        1.3817877874   -1.9792811643   -1.7712183414
H        1.2539717671   -0.2015531701   -1.6969044610
H        0.1083068414   -1.2131498514   -0.7905180734
H        4.5637841594   -0.8096121904   -2.9547052165
18   

C        5.0830098757    0.7998024589    1.3193374728
C        5.8609612549    0.8893161661    0.1682669888
C        3.8307047940    0.1846207058    1.2692036549
C        5.3831670121    0.3571646707   -1.0306944942
C        3.3329246644   -0.3496816010    0.0655402595
C        4.1299666567   -0.2644107499   -1.0982630630
C        1.9669680649   -0.9783938683    0.1183463243
C        1.1066663266   -1.2078725626   -1.1190034001
O        1.4736853313   -1.2520117208    1.2086311714
O        3.7350380545   -0.7845958647   -2.2960989441
H        5.4471615375    1.2072292788    2.2558396195
H        6.8338621281    1.3675765632    0.2066520903
H        3.2452422200    0.1312731969    2.1820301091
H        6.0042439222    0.4300992313   -1.9147456938
H        1.4613429826   -2.0904134310   -1.6576421625
H        1.1513421914   -0.3346736777   -1.7748359260
H        0.0656041081   -1.3687655063   -0.8255542222
H        4.4289762776   -0.6537211273   -2.9640896027
18   

C        5.1368197595    0.7417162962    1.3248051826
C        5.9095594526    0.8403127833    0.1720257159
C        3.8570325086    0.1876727448    1.2623507863
C        5.3966425074    0.3825851907   -1.0421945088
C        3.3234184494   -0.2794076574    0.0452144916
C        4.1148238381   -0.1761445762   -1.1239601876
C        1.9337491216   -0.8573044862    0.0966843421
C        1.2005329916   -1.4089624218   -1.1209809753
O        1.3396025054   -0.8958518344    1.1707119722
O        3.6851390602   -0.6003469294   -2.3470148864
H        5.5263533505    1.0945460133    2.2731866178
H        6.9041073032    1.2707883903    0.2201115359
H        3.2829163661    0.1269120885    2.1818019818
H        6.0121750745    0.4673544996   -1.9290721607
H        1.7624867121   -2.2430101204   -1.5489830649
H        1.0763611213   -0.6226346043   -1.8699042130
H        0.2104202641   -1.7704836133   -0.8294345051
H        4.3713633106   -0.4426379304   -3.0171390116
18   

C        5.1399416925    0.6652487018    1.3459473781
C        5.9096647251    0.7742045359    0.1910281551
C        3.8354123420    0.1734434769    1.2713793555
C        5.3676156912    0.3938530429   -1.0379942731
C        3.2784060294   -0.2209447857    0.0400085805
C        4.0604104476   -0.1001399269   -1.1308297885
C        1.8700857630   -0.7495810726    0.0729884152
C        1.2736311432   -1.6023572139   -1.0409366358
O        1.1817370469   -0.5623994570    1.0720154821
O        3.5850169736   -0.4302227984   -2.3663127709
H        5.5512227961    0.9613323357    2.3044992262
H        6.9234471960    1.1558851197    0.2485399548
H        3.2594732144    0.0975902451    2.1886606306
H        5.9783431532    0.4912403283   -1.9268869473
H        2.0021431501   -2.3446659387   -1.3768481240
H        0.9848882142   -0.9648489265   -1.8805891509
H        0.3865910522   -2.1271242218   -0.6754383728
H        4.2577059458   -0.2491426966   -3.0442430871
18   

C        4.6333768255    1.9329423923    0.1016785934
C        5.7639059368    1.1271494253   -0.0185698992
C        3.3673870202    1.3994544985   -0.1487914753
C        5.6227471483   -0.2114805987   -0.3929188838
C        3.2150583195    0.0531707736   -0.5233993714
C        4.3596343073   -0.7594388368   -0.6478089917
C        1.8128965991   -0.4423375250   -0.7404684171
C        1.3901683014   -1.8645637058   -0.3936948998
O        0.9522594038    0.3377799710   -1.1334834336
O        4.2780505274   -2.0667810402   -1.0307561598
H        4.7339947135    2.9734951898    0.3893264818
H        6.7477676219    1.5406581427    0.1757532196
H        2.4961276634    2.0397654359   -0.0490805567
H        6.5116931771   -0.8227483424   -0.4862602983
H        1.9515963267   -2.2216956018    0.4735349177
H        1.5804913690   -2.5231805062   -1.2450589954
H        0.3233530142   -1.8887810243   -0.1552783980
H        5.1679976382   -2.4495710821   -1.1106419787
18   

C        4.6038665241    1.9101860012    0.1632564449
C        5.7455798943    1.1228543388    0.0179766012
C        3.3485204632    1.3794519201   -0.1423504704
C        5.6254972811   -0.1946666203   -0.4332677823
C        3.2220406354    0.0596335647   -0.6014095864
C        4.3721697817   -0.7365978024   -0.7421822285
C        1.8346911296   -0.4603524828   -0.8603795496
C        1.3845612822   -1.8153209052   -0.3307931418
O        1.0270533710    0.2333182828   -1.4650992017
O        4.2955816730   -2.0249552387   -1.1863186821
H        4.6882542091    2.9331521690    0.5125741772
H        6.7213269926    1.5335920292    0.2545022851
H        2.4634031296    1.9974366698   -0.0263277578
H        6.5209616301   -0.7939294730   -0.5410024650
H        1.9340126916   -2.0605325046    0.5818689062
H        1.5752746832   -2.5855254163   -1.0825674921
H        0.3151879582   -1.7905124878   -0.1045748462
H        5.1867919805   -2.4005923020   -1.2837861681
18   

C        4.5677681932    1.8358735362    0.2279250720
C        5.7211097704    1.0771152699    0.0291872788
C        3.3209929032    1.3122003974   -0.1228594898
C        5.6201360012   -0.2049570709   -0.5187119081
C        3.2153089642    0.0315659743   -0.6802449048
C        4.3744688095   -0.7369888025   -0.8717092797
C        1.8424448056   -0.5069535345   -0.9982155475
C        1.3227358899   -1.7549965819   -0.2980264119
O        1.1161397421    0.0785887642   -1.7873617398
O        4.3077429826   -1.9915240284   -1.4050438303
H        4.6371519539    2.8311649059    0.6523986074
H        6.6905323480    1.4820474498    0.2993331117
H        2.4257928401    1.9064027744    0.0313098893
H        6.5229384584   -0.7844249621   -0.6661800126
H        1.5658836159   -1.7084862842    0.7665509586
H        1.7834342050   -2.6454578339   -0.7323373578
H        0.2375701988   -1.8244695135   -0.4126311038
H        5.2019926992   -2.3428406045   -1.5520979777
18   

C        4.6407452510    1.8267863761    0.3526211159
C        5.8060269402    1.0973515476    0.1184314824
C        3.4030623344    1.3038490689   -0.0309010369
C        5.7247281164   -0.1547730532   -0.4966321416
C        3.3155562498    0.0559228380   -0.6556509592
C        4.4872822305   -0.6831423309   -0.8816550433
C        1.9654372511   -0.5117718287   -1.0299057302
C        1.3704528631   -1.6467048236   -0.2089596780
O        1.3447822698   -0.0803508760   -1.9876716388
O        4.4351908097   -1.9127836017   -1.4723311915
H        4.6941748131    2.7990208660    0.8295826578
H        6.7687041198    1.5009333468    0.4135540304
H        2.4994924125    1.8767642220    0.1506254424
H        6.6351819637   -0.7148091986   -0.6699236585
H        1.2538522398   -1.3262846880    0.8294242124
H        2.0321271180   -2.5158532171   -0.2421390456
H        0.3926796350   -1.9285700698   -0.6093687962
H        5.3327484606   -2.2407706545   -1.6491174237
18   

C        4.6248892764    1.7745558752    0.4295401466
C        5.8108742231    1.0983048266    0.1447063266
C        3.4005361016    1.2315423130    0.0308123680
C        5.7631400244   -0.1218561948   -0.5345105721
C        3.3466797739    0.0168816565   -0.6579505931
C        4.5387635882   -0.6692658336   -0.9339329341
C        2.0198763456   -0.5797356977   -1.0753633099
C        1.2887907425   -1.5108249494   -0.1210729391
O        1.5206570610   -0.3175839679   -2.1559872953
O        4.5151574888   -1.8730340079   -1.5773387381
H        4.6524069479    2.7216788586    0.9565907336
H        6.7633749514    1.5175501495    0.4507925872
H        2.4818685313    1.7654946917    0.2502824477
H        6.6885635833   -0.6432196553   -0.7451354772
H        1.1277890677   -1.0074189068    0.8355403667
H        1.8905390143   -2.4085650104    0.0435630760
H        0.3221840647   -1.8001821625   -0.5427712200
H        5.4178807601   -2.1576900032   -1.7965589317
18   

C        4.6013855886    1.6757170018    0.5019554057
C        5.8138783776    1.0740236981    0.1664644258
C        3.3982152900    1.0905254321    0.0986739630
C        5.8143188425   -0.1140582969   -0.5688150747
C        3.3916856427   -0.0971020480   -0.6391016682
C        4.6117914114   -0.7049139509   -0.9729663564
C        2.0871838922   -0.7101778706   -1.0964170613
C        1.1356211122   -1.2997715201   -0.0663161464
O        1.7301550443   -0.6361832941   -2.2595425139
O        4.6386701754   -1.8760921698   -1.6734218138
H        4.5922985736    2.5995605420    1.0694278946
H        6.7500530047    1.5271053509    0.4746889696
H        2.4605692347    1.5735497520    0.3525743451
H        6.7604453525   -0.5765526526   -0.8208541468
H        1.0916668564   -0.6580177398    0.8170440124
H        1.4931204697   -2.2895004292    0.2299050594
H        0.1322831522   -1.3936067087   -0.4909326118
H        5.5465804428   -2.0886076278   -1.9453013937
18   

C        4.5873769354    1.5891786851    0.5710030396
C        5.8160857208    1.0573664354    0.1832783872
C        3.4013773660    0.9691332496    0.1695989583
C        5.8506140483   -0.0972989370   -0.6016723882
C        3.4262035409   -0.1879580558   -0.6189376908
C        4.6666469795   -0.7254585690   -1.0048188748
C        2.1378869441   -0.8202344679   -1.0829247623
C        1.0683739896   -1.1964379926   -0.0661122560
O        1.8879807669   -0.9476320896   -2.2702253857
O        4.7369425616   -1.8663153080   -1.7506788818
H        4.5521594643    2.4877255824    1.1768116651
H        6.7387814504    1.5386785497    0.4893628389
H        2.4546726583    1.4086709955    0.4640783590
H        6.8099936889   -0.5059996181   -0.8934521187
H        0.9027599867   -0.3783773037    0.6383454628
H        1.3913750848   -2.0829377777    0.4860608385
H        0.1274386141   -1.4194569608   -0.5769826164
H        5.6446561700   -2.0152497576   -2.0614422668
18   

C        4.5896341851    1.4929909934    0.6481591293
C        5.8229804750    1.0375990508    0.1887727500
C        3.4169433033    0.8414435645    0.2592721180
C        5.8756164297   -0.0743789860   -0.6531173738
C        3.4536729761   -0.2734179294   -0.5920953886
C        4.7060734513   -0.7363168796   -1.0453525987
C        2.1758319672   -0.9312762710   -1.0345160578
C        1.0531050169   -1.1592910016   -0.0315611935
O        1.9925979962   -1.2542376615   -2.1979606306
O        4.8118148890   -1.8395188714   -1.8419021062
H        4.5398555335    2.3567566744    1.3016830887
H        6.7356600925    1.5434716596    0.4851598761
H        2.4673310065    1.2240328787    0.6168935837
H        6.8402145205   -0.4256926680   -0.9976816131
H        0.5363877913   -0.2181183267    0.1714442303
H        1.4657304759   -1.5555585309    0.9000846411
H        0.3356777282   -1.8805304435   -0.4332036575
H        5.7172440813   -1.9336583409   -2.1785103579
18   

C        4.5826632160    1.4237068823    0.7108281551
C        5.8176382476    1.0461818297    0.1930187381
C        3.4274337081    0.7374722381    0.3308361422
C        5.8899833869   -0.0242298845   -0.6980374643
C        3.4775569990   -0.3374059328   -0.5740333023
C        4.7395327263   -0.7229813633   -1.0840153773
C        2.2133872515   -1.0303569648   -0.9864765866
C        1.0264262079   -1.0897589919   -0.0326453332
O        2.0871653499   -1.5527736810   -2.0846796626
O        4.8844434494   -1.7840945124   -1.9299147875
H        4.5174260404    2.2542804702    1.4048018520
H        6.7168346469    1.5792299153    0.4829621286
H        2.4800889421    1.0673826344    0.7423461918
H        6.8577378600   -0.3155376571   -1.0868880029
H        0.4810626934   -0.1429477135   -0.0592285696
H        1.3745465682   -1.2829999485    0.9855319298
H        0.3512049785   -1.8974031569   -0.3294582325
H        5.7934630814   -1.8355863025   -2.2650853178
18   

C        4.6207900532    1.3814590520    0.7150208487
C        5.8377374142    1.0479810062    0.1324740761
C        3.4647988220    0.6795402156    0.3686603171
C        5.8910279105    0.0068742142   -0.7919491439
C        3.4892121383   -0.3712249734   -0.5686232400
C        4.7405654573   -0.7083133371   -1.1476939625
C        2.2250232610   -1.0910941863   -0.9251415909
C        0.9827396109   -0.9537663506   -0.0512909979
O        2.1364666913   -1.8138890230   -1.9086446949
O        4.8848073293   -1.7305616902   -2.0401899891
H        4.5697223037    2.1894924059    1.4362837979
H        6.7377645014    1.5924495784    0.3975958464
H        2.5379597881    0.9820619110    0.8421447615
H        6.8462522509   -0.2483906337   -1.2335671155
H        0.5472086098    0.0407828824   -0.1775931270
H        1.2438556677   -1.1115398484    0.9984649111
H        0.2392608030   -1.7023747452   -0.3401062095
H        5.7951709457   -1.7736718543   -2.3721084336
18   

C        4.6296201001    1.3631536743    0.7326777084
C        5.8322206706    1.0850063503    0.0954469800
C        3.4864214599    0.6250096212    0.4213919426
C        5.8829988091    0.0661348179   -0.8527034079
C        3.5073892624   -0.4113221858   -0.5332159435
C        4.7452474146   -0.6839005062   -1.1766032981
C        2.2589105601   -1.1798849009   -0.8387197265
C        0.9501179760   -0.8554548691   -0.1252595003
O        2.2285397163   -2.0876898648   -1.6594186106
O        4.8890443300   -1.6621162811   -2.1171690115
H        4.5801025081    2.1545147879    1.4723126932
H        6.7226535030    1.6565268718    0.3347957292
H        2.5753353010    0.8835827880    0.9479434140
H        6.8262915593   -0.1410744850   -1.3425141182
H        0.6576815368    0.1772125018   -0.3326085680
H        1.0667093560   -0.9982212793    0.9522097182
H        0.1566413149   -1.5196080113   -0.4802677153
H        5.8023436823   -1.6989124388   -2.4413937245
