39   
Generated by ForceBalance from scan.xyz: Frame 1 of 13
C        1.6801951368   -4.3618092895   -0.6678268034
C        2.1235026168   -3.3807246302    1.4804702748
C        0.7067393102    1.2826377814    1.2246733310
C        2.5365730500   -5.4229911690   -0.3731477222
C        2.9781302770   -4.4392053257    1.7952291254
C        0.0008976324    2.4539366903    1.5071126169
C       -1.5983679734    1.8389200370   -0.2022018232
C        1.4510798953   -3.3249102735    0.2509377972
C        0.2767611850    0.3613098739    0.2560988076
C       -0.8981342965    0.6617227678   -0.4691000644
C        3.1868299598   -5.4654306934    0.8649209149
C       -1.1627692106    2.7308480028    0.7852762097
C       -0.7288953532   -2.4978616569   -0.4581624044
C        0.5248826334   -2.1890954448   -0.0558720529
C        1.1433999936   -0.8482102778    0.0905892497
C        2.4015636298   -0.6031582889   -0.4540573826
C       -1.3966010597   -0.2737287944   -1.5384094994
C       -1.8444637640   -1.6180214167   -0.9545093956
C        3.8197895605   -0.7374119331    0.0752947803
O        4.0208458584   -6.5323777130    1.1111625520
O       -1.9164976392    3.8607678579    0.9911969195
H        1.1907943769   -4.3253554078   -1.6374822131
H        1.9670817745   -2.5878583183    2.2075349719
H        1.6125624638    1.0667458794    1.7846612649
H        2.7181652758   -6.2176388229   -1.0910311983
H        3.4779538447   -4.4672106056    2.7627805962
H        0.3555394951    3.1398143085    2.2749057658
H       -2.4951527575    2.0870279120   -0.7638730692
H       -0.9539488702   -3.5629250127   -0.4870834885
H        2.3830701214    0.4310114861   -0.8303286408
H       -2.2347730985    0.1899311822   -2.0677369021
H       -0.6055317959   -0.4537205668   -2.2764748603
H       -2.3828205509   -2.1760760766   -1.7309432376
H       -2.5772502933   -1.4421372009   -0.1532948932
H        3.9329546970    0.0342543628    0.8459388173
H        4.5552692568   -0.5267772564   -0.7084750372
H        4.0609745251   -1.7074430797    0.5193337945
H        4.4009755260   -6.4358957281    1.9984816771
H       -1.5061984372    4.3898754617    1.6935858603
39   
Generated by ForceBalance from scan.xyz: Frame 2 of 13
C        1.6705118592   -4.3780854193   -0.5896468125
C        2.1041259966   -3.2865535084    1.5082208670
C        0.6877745061    1.2468599181    1.2883135910
C        2.4996029244   -5.4385884282   -0.2221976651
C        2.9298574281   -4.3430604160    1.8952426153
C       -0.0543546219    2.3791182699    1.6350745954
C       -1.6231477766    1.8319233857   -0.1251567000
C        1.4510035933   -3.2865700875    0.2661868262
C        0.2881869155    0.3820472834    0.2596540356
C       -0.8862071020    0.6946325606   -0.4584605586
C        3.1295499416   -5.4245334871    1.0267297633
C       -1.2200631991    2.6694895010    0.9219137964
C       -0.6898072972   -2.4493450850   -0.5442015998
C        0.5567378664   -2.1513510644   -0.1170832371
C        1.1734724134   -0.7982332567   -0.0000884784
C        2.3840404732   -0.5164295812   -0.5967094204
C       -1.3351053688   -0.1906280978   -1.5907381460
C       -1.7806752021   -1.5702517093   -1.0942043024
C        3.8073797990   -0.8948493298   -0.2367578486
O        3.9374556384   -6.4920777252    1.3453461661
O       -2.0066909904    3.7640173316    1.1928999828
H        1.1986299696   -4.3850554900   -1.5685274284
H        1.9591280272   -2.4477588557    2.1844041372
H        1.5970478779    1.0209174684    1.8392492698
H        2.6752799198   -6.2756380880   -0.8917583593
H        3.4162362752   -4.3262910721    2.8698461951
H        0.2753167170    3.0259112718    2.4467226584
H       -2.5212014001    2.0912741341   -0.6797803826
H       -0.9409315499   -3.5092919289   -0.5345595397
H        2.4145731448    0.5465567126   -0.8692072697
H       -2.1638324290    0.2852194126   -2.1242267109
H       -0.5167396366   -0.3188067160   -2.3094790529
H       -2.2467558196   -2.1099329575   -1.9291521187
H       -2.5742935486   -1.4482794748   -0.3423696237
H        4.0933405144   -0.2494218003    0.6023892677
H        4.4993355707   -0.6833086703   -1.0596749210
H        3.9442498848   -1.9346358371    0.0679158885
H        4.3059769355   -6.3540287071    2.2320798575
H       -1.6161711917    4.2569875174    1.9318039305
39   
Generated by ForceBalance from scan.xyz: Frame 3 of 13
C        1.6016617828   -4.4044260617   -0.4906741238
C        2.1388706048   -3.1330639785    1.4781152731
C        0.6574560666    1.1873569701    1.3825650155
C        2.3943335797   -5.4594780449   -0.0387981728
C        2.9305041142   -4.1817053422    1.9473905109
C       -0.1265153038    2.2646900885    1.8075219547
C       -1.6489186806    1.8253848429   -0.0239192026
C        1.4502847540   -3.2247717602    0.2579588541
C        0.3004890107    0.4077324978    0.2761175417
C       -0.8691228607    0.7444470662   -0.4373697013
C        3.0594039424   -5.3518845707    1.1874245143
C       -1.2884300629    2.5804549945    1.0988905193
C       -0.6382854232   -2.3756864089   -0.6798015709
C        0.5959214759   -2.0944772689   -0.2103866197
C        1.2018670247   -0.7290488780   -0.0973474485
C        2.3714002128   -0.4007209502   -0.7233489750
C       -1.2572566903   -0.0618959974   -1.6490465139
C       -1.6935333712   -1.4839578687   -1.2772394828
C        3.7595811086   -0.9863811654   -0.5909691412
O        3.8313002239   -6.4173989017    1.5901328204
O       -2.1129447525    3.6250816192    1.4477236484
H        1.1097498293   -4.4858013979   -1.4561411611
H        2.0510360548   -2.2257193299    2.0702052535
H        1.5644836112    0.9418653198    1.9291774345
H        2.5173145368   -6.3641689767   -0.6272226394
H        3.4462746107   -4.0898979005    2.9024942729
H        0.1685472931    2.8502422511    2.6769879867
H       -2.5451680645    2.1047527274   -0.5718308676
H       -0.9241330165   -3.4265939095   -0.6473678945
H        2.4536847227    0.6813819527   -0.8751082812
H       -2.0758360883    0.4350942507   -2.1790308157
H       -0.4091843266   -0.1187151290   -2.3416516069
H       -2.0732085605   -1.9820862232   -2.1799530866
H       -2.5504212734   -1.4319578833   -0.5894040631
H        4.2153944592   -0.5229144336    0.2923780873
H        4.3888892345   -0.7309910317   -1.4512961382
H        3.7845447213   -2.0690264694   -0.4570241341
H        4.2317112616   -6.2092552093    2.4489273421
H       -1.7500127817    4.0625509116    2.2340334731
39   
Generated by ForceBalance from scan.xyz: Frame 4 of 13
C        1.5750209488   -4.4366754998   -0.3965119821
C        2.1823163911   -3.0468423388    1.4686321725
C        0.6584674297    1.1206164155    1.4373525042
C        2.3398314021   -5.4821973333    0.1191168590
C        2.9479755490   -4.0847867439    2.0006839954
C       -0.1546822472    2.1577618215    1.9067957610
C       -1.6478333968    1.7817330269    0.0370499731
C        1.4713899626   -3.2015478645    0.2676140854
C        0.3306408071    0.3961454001    0.2867871418
C       -0.8378605176    0.7430247601   -0.4236112157
C        3.0273963541   -5.3097164347    1.3257139799
C       -1.3160440058    2.4843597745    1.2021571354
C       -0.5789774188   -2.3561792566   -0.7637583224
C        0.6453156932   -2.0810111907   -0.2662788395
C        1.2393202888   -0.7078861955   -0.1560251608
C        2.4100669962   -0.3605077898   -0.7494383112
C       -1.1873354909   -0.0111284971   -1.6807178791
C       -1.6108255038   -1.4566284749   -1.3896517909
C        3.7218185669   -1.1062034279   -0.8010323597
O        3.7716659131   -6.3685950079    1.7925066579
O       -2.1682043570    3.4905418543    1.5964406420
H        1.0701792380   -4.5711623683   -1.3492115078
H        2.1329860719   -2.0979757692    1.9961904571
H        1.5638506573    0.8654923943    1.9823689360
H        2.4253302125   -6.4295637126   -0.4053294521
H        3.4821466464   -3.9415612423    2.9392152143
H        0.1168570986    2.7034118634    2.8092828929
H       -2.5447386162    2.0692607307   -0.5055608730
H       -0.8877575113   -3.4000233661   -0.7162371853
H        2.5669282726    0.7201243661   -0.8118358256
H       -2.0022046913    0.4973001925   -2.2055870343
H       -0.3232213275   -0.0208376303   -2.3551699626
H       -1.9342729275   -1.9248129996   -2.3299860111
H       -2.5031008161   -1.4480418108   -0.7463744823
H        4.2769926570   -0.8661588610    0.1142151506
H        4.3349725594   -0.7764992377   -1.6475587169
H        3.6193036202   -2.1909521999   -0.8536814124
H        4.1932520637   -6.1130086130    2.6280576936
H       -1.8230600626    3.8937468459    2.4086065524
39   
Generated by ForceBalance from scan.xyz: Frame 5 of 13
C        1.5532279371   -4.3931811351   -0.3889693789
C        2.1954771130   -2.9545621463    1.4262733582
C        0.6266311835    1.1345385596    1.4531693295
C        2.3071407627   -5.4317024120    0.1548343326
C        2.9514324031   -3.9854016676    1.9858508095
C       -0.2032862815    2.1481423415    1.9450096113
C       -1.6838499930    1.7992964645    0.0604652775
C        1.4721591637   -3.1357507636    0.2365118130
C        0.3152980608    0.4383629771    0.2814324262
C       -0.8556853951    0.7864455904   -0.4245766303
C        3.0075914074   -5.2318939452    1.3500105968
C       -1.3668815427    2.4762758656    1.2448322124
C       -0.5647944910   -2.3017302400   -0.8354086342
C        0.6538854183   -2.0235532367   -0.3253322463
C        1.2261581487   -0.6428978940   -0.2049514004
C        2.4193218151   -0.2848782522   -0.7334402375
C       -1.1822252762    0.0629851284   -1.7063618970
C       -1.5884982668   -1.3980414213   -1.4689982678
C        3.6457043825   -1.1283670117   -0.9632045040
O        3.7407078521   -6.2863680195    1.8435800755
O       -2.2356564854    3.4590575320    1.6623030169
H        1.0406493410   -4.5517943472   -1.3337822199
H        2.1635373652   -1.9897268776    1.9248234985
H        1.5316155811    0.8761799599    1.9972174309
H        2.3750104382   -6.3962520892   -0.3399960214
H        3.4953194283   -3.8195011115    2.9150545694
H        0.0561496803    2.6732952838    2.8631005642
H       -2.5830065061    2.0875647462   -0.4780081559
H       -0.8806915907   -3.3433288240   -0.7860648581
H        2.6218713235    0.7881320827   -0.7186388128
H       -1.9986973168    0.5751540727   -2.2251157029
H       -0.3108355376    0.0875845509   -2.3710178506
H       -1.8777212473   -1.8430096492   -2.4317813617
H       -2.4990974545   -1.4226455218   -0.8524551135
H        4.2744590581   -1.0890759264   -0.0645744850
H        4.2437080958   -0.7352189866   -1.7933649459
H        3.4260892651   -2.1772939880   -1.1650628490
H        4.1734250715   -6.0108665351    2.6670392845
H       -1.8989624174    3.8462388906    2.4857164679
39   
Generated by ForceBalance from scan.xyz: Frame 6 of 13
C        1.5549027876   -4.3855656166   -0.3706855569
C        2.2034549696   -2.9279676894    1.4269692683
C        0.6119967936    1.1206399109    1.4687117925
C        2.3013389560   -5.4228042796    0.1851889678
C        2.9522887067   -3.9577251972    1.9985053843
C       -0.2270064341    2.1249411527    1.9641865519
C       -1.6921714390    1.7894256201    0.0638619853
C        1.4806435802   -3.1197106573    0.2388675238
C        0.3138470363    0.4386458751    0.2854346871
C       -0.8538846534    0.7872463304   -0.4258280281
C        3.0019321505   -5.2122207002    1.3784228878
C       -1.3863113928    2.4548750058    1.2575969564
C       -0.5523485019   -2.2966729219   -0.8509859117
C        0.6644920463   -2.0135086264   -0.3384912802
C        1.2265625299   -0.6297051992   -0.2222089154
C        2.4560990557   -0.2834620634   -0.6591222756
C       -1.1672181022    0.0711249925   -1.7155694869
C       -1.5722475851   -1.3926075143   -1.4899772148
C        3.6017059608   -1.1815321602   -1.0401860412
O        3.7285672352   -6.2647227116    1.8855575014
O       -2.2632052337    3.4287750871    1.6793704304
H        1.0420594601   -4.5527211531   -1.3138957323
H        2.1768433938   -1.9579392469    1.9151141694
H        1.5124006297    0.8588128364    2.0186394684
H        2.3634318549   -6.3935201389   -0.2982316422
H        3.4961814893   -3.7840763891    2.9262857903
H        0.0212397254    2.6403088926    2.8909089479
H       -2.5895202939    2.0779057313   -0.4775414271
H       -0.8730380032   -3.3363012318   -0.7930847879
H        2.7118885487    0.7740671666   -0.5832438872
H       -1.9807298208    0.5837415412   -2.2384816662
H       -0.2900833377    0.1022998732   -2.3724479515
H       -1.8552306110   -1.8334708104   -2.4565541003
H       -2.4865040738   -1.4214428876   -0.8790163222
H        4.2647129671   -1.3263259307   -0.1773276784
H        4.2018133008   -0.7250359489   -1.8356076271
H        3.2822482778   -2.1692152703   -1.3745267851
H        4.1621316406   -5.9815230883    2.7059560353
H       -1.9343148542    3.8084813338    2.5093748974
39   
Generated by ForceBalance from scan.xyz: Frame 7 of 13
C        1.5913792545   -4.3516004279   -0.3710637808
C        2.2277140996   -2.9004211532    1.4350181192
C        0.6305774893    1.1488349854    1.4693377136
C        2.3353145589   -5.3906890354    0.1849198708
C        2.9739467412   -3.9318513524    2.0071564069
C       -0.2131276666    2.1506251236    1.9614401708
C       -1.6757963742    1.8073469083    0.0600856406
C        1.5128031429   -3.0876478546    0.2416520320
C        0.3371646863    0.4660815858    0.2850688458
C       -0.8315212735    0.8088824200   -0.4270149615
C        3.0287754952   -5.1840149946    1.3828286038
C       -1.3728455157    2.4755075535    1.2528359404
C       -0.5277874923   -2.2758161884   -0.8396695833
C        0.6925557208   -1.9848725729   -0.3385699529
C        1.2474666777   -0.5987596955   -0.2312019240
C        2.5156016120   -0.2750916368   -0.5591040231
C       -1.1399297249    0.0875971083   -1.7153363209
C       -1.5463391797   -1.3754264812   -1.4860976859
C        3.6001785020   -1.1780802486   -1.0773583548
O        3.7533652526   -6.2375965642    1.8905466404
O       -2.2539961039    3.4462789129    1.6733097715
H        1.0831658448   -4.5157433280   -1.3173224603
H        2.1974691310   -1.9331221792    1.9277122228
H        1.5288307554    0.8884741281    2.0233867947
H        2.4005239452   -6.3594548616   -0.3019648271
H        3.5115453074   -3.7611961197    2.9391672709
H        0.0307853165    2.6669487952    2.8888114278
H       -2.5743853925    2.0901268889   -0.4823123705
H       -0.8513143084   -3.3135177489   -0.7654920068
H        2.8021558524    0.7673956576   -0.4197034975
H       -1.9501121952    0.5990411119   -2.2445408328
H       -0.2596102462    0.1156346732   -2.3683894602
H       -1.8253006509   -1.8204678731   -2.4520264089
H       -2.4627906788   -1.4024438141   -0.8784553522
H        4.3126127092   -1.4294403238   -0.2805006831
H        4.1671748350   -0.6708416147   -1.8666575903
H        3.2150610448   -2.1159709358   -1.4785358841
H        4.1815880818   -5.9569904532    2.7146422958
H       -1.9259529050    3.8294381347    2.5020481084
39   
Generated by ForceBalance from scan.xyz: Frame 8 of 13
C        1.5728639440   -4.3523787997   -0.3843993958
C        2.1991642173   -2.9213325243    1.4411804859
C        0.5987309030    1.1437203415    1.4635965454
C        2.3174954865   -5.3965718432    0.1618461713
C        2.9451330377   -3.9583632153    2.0030068072
C       -0.2453574246    2.1487712684    1.9476421716
C       -1.6977207224    1.8017246884    0.0406376873
C        1.4899853641   -3.0959603839    0.2424175818
C        0.3128756737    0.4585007443    0.2786069332
C       -0.8525638699    0.7999857428   -0.4389550785
C        3.0063677068   -5.2032206641    1.3641963399
C       -1.4001764017    2.4751239901    1.2313994775
C       -0.5634813488   -2.2876939842   -0.8141383435
C        0.6636874697   -1.9930439336   -0.3307286081
C        1.2206781028   -0.6073755438   -0.2402504962
C        2.5205051619   -0.3147035992   -0.4566651193
C       -1.1636853748    0.0655139224   -1.7192684553
C       -1.5807454480   -1.3912513871   -1.4677311799
C        3.5623845272   -1.1811952861   -1.1071506230
O        3.7318961872   -6.2607508996    1.8624754039
O       -2.2814602103    3.4495038392    1.6439340502
H        1.0660347819   -4.5061795438   -1.3331678242
H        2.1642516006   -1.9609362991    1.9464331186
H        1.4911760176    0.8816776168    2.0261317310
H        2.3864098315   -6.3592871019   -0.3363458908
H        3.4772835309   -3.7984082803    2.9400162454
H       -0.0067269668    2.6654962044    2.8761824388
H       -2.5942218622    2.0819175545   -0.5064925579
H       -0.8915902186   -3.3222514924   -0.7194643554
H        2.8272269251    0.7122960020   -0.2577466965
H       -1.9701760364    0.5752362062   -2.2556406802
H       -0.2829444489    0.0777839654   -2.3724059877
H       -1.8682753744   -1.8485959009   -2.4254073612
H       -2.4940524768   -1.4016485986   -0.8548944818
H        4.3501224048   -1.4696767891   -0.3983719387
H        4.0493040396   -0.6205164057   -1.9141076483
H        3.1449720803   -2.0970203560   -1.5262556478
H        4.1563480799   -5.9884477080    2.6912852380
H       -1.9564150478    3.8352108631    2.4726446424
39   
Generated by ForceBalance from scan.xyz: Frame 9 of 13
C        1.5600531297   -4.3632824388   -0.4073235551
C        2.1805802513   -2.9642291306    1.4448482964
C        0.5859480717    1.1369727950    1.4458466153
C        2.3063290475   -5.4162056011    0.1204607675
C        2.9274670298   -4.0095486280    1.9892685944
C       -0.2554129889    2.1501836629    1.9161385714
C       -1.7010829807    1.7929549872    0.0071360788
C        1.4746335107   -3.1184024736    0.2413059979
C        0.3028208080    0.4431320578    0.2644302867
C       -0.8591476891    0.7820848120   -0.4594282434
C        2.9924833882   -5.2421969579    1.3269631022
C       -1.4049508377    2.4773266577    1.1914518106
C       -0.5957403545   -2.3090806038   -0.7759398288
C        0.6408792531   -2.0122171541   -0.3162680211
C        1.2073580351   -0.6293784800   -0.2493445511
C        2.5313541953   -0.3726870207   -0.3491022739
C       -1.1776168695    0.0272885784   -1.7258508403
C       -1.6108851421   -1.4182851297   -1.4399568858
C        3.5565162665   -1.1625556930   -1.1145980325
O        3.7193525385   -6.3066936710    1.8077829924
O       -2.2825799647    3.4604441980    1.5912333604
H        1.0528588355   -4.5003365301   -1.3584313163
H        2.1412539228   -2.0142779810    1.9688160621
H        1.4717049182    0.8740158059    2.0183422138
H        2.3778663694   -6.3696347084   -0.3949398661
H        3.4563312597   -3.8662474646    2.9308506246
H       -0.0195015589    2.6720633280    2.8425025188
H       -2.5951981938    2.0700015521   -0.5454371540
H       -0.9303357436   -3.3386136665   -0.6536503050
H        2.8423980011    0.6407945001   -0.0924254145
H       -1.9778733763    0.5349416690   -2.2733759415
H       -0.2969211777    0.0143645573   -2.3792949356
H       -1.9101818800   -1.8942612724   -2.3850011200
H       -2.5196843290   -1.4044928033   -0.8206212751
H        4.4328703944   -1.4130475633   -0.5024253828
H        3.9158294921   -0.5483135114   -1.9495054673
H        3.1545401984   -2.0925633310   -1.5183581415
H        4.1421637497   -6.0479257370    2.6417555567
H       -1.9586313628    3.8523134881    2.4174697274
39   
Generated by ForceBalance from scan.xyz: Frame 10 of 13
C        1.5633264864   -4.3727131879   -0.4096921355
C        2.1668250942   -3.0178083389    1.4812204202
C        0.5815011222    1.1245525875    1.4496469158
C        2.3143301667   -5.4345593698    0.0943733944
C        2.9167645678   -4.0724202690    2.0023513369
C       -0.2596798647    2.1444886283    1.9037012186
C       -1.6889766810    1.7774108097   -0.0143443057
C        1.4687891211   -3.1455589693    0.2698204730
C        0.3086707962    0.4209829417    0.2707072943
C       -0.8471886011    0.7578618407   -0.4633316964
C        2.9934793311   -5.2870349136    1.3078983471
C       -1.4002306794    2.4723909762    1.1647951965
C       -0.6185607792   -2.3297408063   -0.7020175273
C        0.6284346029   -2.0337317552   -0.2685954759
C        1.2152580444   -0.6581268831   -0.2331263238
C        2.5530117694   -0.4385905814   -0.2165196383
C       -1.1714443849   -0.0184330182   -1.7146666844
C       -1.6260001306   -1.4488999507   -1.3897248597
C        3.5873489972   -1.1159534348   -1.0760158063
O        3.7245943754   -6.3587365250    1.7655094550
O       -2.2759485831    3.4640303088    1.5476798972
H        1.0578101542   -4.4880148448   -1.3645661499
H        2.1169731812   -2.0829167518    2.0306918768
H        1.4582167626    0.8626296631    2.0361491786
H        2.3936928469   -6.3742363575   -0.4445667995
H        3.4384227088   -3.9512774189    2.9510283764
H       -0.0310456186    2.6710219500    2.8292851961
H       -2.5782753356    2.0503694029   -0.5766454258
H       -0.9614203890   -3.3517875385   -0.5450632216
H        2.8648112929    0.5586358550    0.1002557101
H       -1.9626028627    0.4875928373   -2.2766404397
H       -0.2896204507   -0.0617481719   -2.3654006526
H       -1.9282519780   -1.9489532129   -2.3214939109
H       -2.5359110390   -1.4060126314   -0.7735549551
H        4.5245997824   -1.3083642928   -0.5386336152
H        3.8248646590   -0.4392427603   -1.9060420860
H        3.2368281004   -2.0626222847   -1.4924316753
H        4.1421205953   -6.1182678227    2.6075797450
H       -1.9570351904    3.8616954047    2.3730885626
39   
Generated by ForceBalance from scan.xyz: Frame 11 of 13
C        1.5502745897   -4.3765634851   -0.4097534247
C        2.1436975616   -3.0661091336    1.5155915671
C        0.5796768691    1.1366995015    1.4251624781
C        2.3118263551   -5.4450362119    0.0653700974
C        2.9022491687   -4.1276286281    2.0088300350
C       -0.2538127047    2.1750871453    1.8486149459
C       -1.6674102417    1.7857367801   -0.0737520388
C        1.4469851396   -3.1684383391    0.3007560334
C        0.3120362296    0.4111597973    0.2574944801
C       -0.8354065651    0.7443136871   -0.4912375809
C        2.9902515101   -5.3226726827    1.2816509880
C       -1.3815128423    2.5048761891    1.0905748414
C       -0.6617896452   -2.3438517450   -0.6135821444
C        0.5981732881   -2.0510091620   -0.2145758759
C        1.2123121637   -0.6873709240   -0.2253971645
C        2.5565712203   -0.5052566544   -0.1067887229
C       -1.1760287088   -0.0701528996   -1.7132097808
C       -1.6628431426   -1.4733338837   -1.3227242039
C        3.6218125278   -1.0369009739   -1.0329322893
O        3.7313648988   -6.3989964964    1.7114015883
O       -2.2464162837    3.5174567649    1.4423630801
H        1.0412225349   -4.4712355205   -1.3649921480
H        2.0836928428   -2.1472988863    2.0906628182
H        1.4442881149    0.8774968486    2.0302739222
H        2.3985432463   -6.3698296254   -0.4976298750
H        3.4217398853   -4.0279580661    2.9611759063
H       -0.0290652690    2.7156285283    2.7670395132
H       -2.5494104554    2.0540222958   -0.6495734407
H       -1.0143561604   -3.3552106310   -0.4146188950
H        2.8453096547    0.4797282352    0.2698241508
H       -1.9556672731    0.4307361818   -2.2954137082
H       -0.2963650073   -0.1628618736   -2.3617242589
H       -1.9888453163   -2.0069945740   -2.2275044185
H       -2.5628455291   -1.3810900827   -0.6975255131
H        4.5885239936   -1.1766914765   -0.5339041858
H        3.7656502131   -0.2874693568   -1.8202334266
H        3.3433115570   -1.9835337974   -1.5046007936
H        4.1474519213   -6.1762657754    2.5590383176
H       -1.9298443457    3.9288990898    2.2618861224
39   
Generated by ForceBalance from scan.xyz: Frame 12 of 13
C        1.5326694953   -4.3806355338   -0.4290747036
C        2.1332393360   -3.1070582046    1.5195924362
C        0.5928514238    1.1437987179    1.3927662251
C        2.3030541774   -5.4550562683    0.0191576732
C        2.8985709334   -4.1751628041    1.9868763440
C       -0.2318289194    2.1954109659    1.7983816021
C       -1.6429482781    1.7911182456   -0.1213476522
C        1.4302769209   -3.1881097956    0.3064749128
C        0.3246016116    0.4022612257    0.2344622523
C       -0.8212598065    0.7327618167   -0.5180337124
C        2.9880630510   -5.3541225872    1.2334220291
C       -1.3522234033    2.5273594434    1.0300697486
C       -0.7003244625   -2.3505265879   -0.5418828520
C        0.5744903895   -2.0642095352   -0.1846221240
C        1.2136119653   -0.7142019865   -0.2399069068
C        2.5614861687   -0.5563703900   -0.0514792858
C       -1.1844649914   -0.1110774327   -1.7128087652
C       -1.6971070781   -1.4885647567   -1.2670503278
C        3.6721392449   -0.8851878383   -1.0220480445
O        3.7364874856   -6.4355173295    1.6369589047
O       -2.2055842138    3.5563182537    1.3619318804
H        1.0141326466   -4.4583875263   -1.3807165050
H        2.0699951543   -2.2013753146    2.1149087294
H        1.4496112386    0.8866523992    2.0094039486
H        2.3898495085   -6.3681569869   -0.5625864788
H        3.4217925437   -4.0939294091    2.9389275113
H       -0.0058915551    2.7449285984    2.7112044181
H       -2.5221292908    2.0560182827   -0.7030440566
H       -1.0617312817   -3.3499592160   -0.3026198583
H        2.7944642488    0.4172729135    0.3928369061
H       -1.9575045704    0.3866906528   -2.3062984028
H       -0.3119979966   -0.2458623547   -2.3635905286
H       -2.0428957673   -2.0490713846   -2.1481063310
H       -2.5879612962   -1.3552343252   -0.6363483073
H        4.6494084427   -0.9722617494   -0.5325486407
H        3.7287193260   -0.0472386042   -1.7260140544
H        3.4940491600   -1.8031823805   -1.5919009807
H        4.1570124034   -6.2278493355    2.4862226998
H       -1.8870164371    3.9768818491    2.1760298477
39   
Generated by ForceBalance from scan.xyz: Frame 13 of 13
C        1.4786604524   -4.4333356415   -0.3822274523
C        2.1309526828   -3.1243753896    1.5254508172
C        0.6284641786    1.0927351324    1.3722815241
C        2.2322083999   -5.5125420835    0.0833895638
C        2.8784096760   -4.1967585810    2.0112068388
C       -0.1927389266    2.1441094095    1.7845678493
C       -1.6024074884    1.7623081828   -0.1397651180
C        1.4111737105   -3.2202963357    0.3230564518
C        0.3590349685    0.3608663390    0.2078919470
C       -0.7870618963    0.7005047320   -0.5411561015
C        2.9338856558   -5.3957729923    1.2865206071
C       -1.3089615643    2.4897057428    1.0160649047
C       -0.7168211163   -2.3640308515   -0.5152227136
C        0.5689595267   -2.0927535384   -0.1840229951
C        1.2388453049   -0.7599312932   -0.2887327245
C        2.5933197107   -0.6050998287   -0.0853803012
C       -1.1649080753   -0.1449921220   -1.7300024826
C       -1.7001543492   -1.5067580101   -1.2632167209
C        3.7405458128   -0.6805706979   -1.0726426627
O        3.6640337138   -6.4824878209    1.7088574005
O       -2.1555760401    3.5226152405    1.3531647774
H        0.9458516895   -4.5242446676   -1.3246854767
H        2.0929073119   -2.2039536342    2.0998405149
H        1.4820432905    0.8294171070    1.9906689608
H        2.2926423659   -6.4414657129   -0.4762234271
H        3.4141915934   -4.1032318115    2.9551093736
H        0.0337541529    2.6842616040    2.7028315520
H       -2.4799129626    2.0345191970   -0.7206554111
H       -1.0976183196   -3.3445236316   -0.2322663318
H        2.7678125191    0.3473626362    0.4311453785
H       -1.9304647211    0.3594665176   -2.3275223006
H       -0.2957760439   -0.3023590799   -2.3800792765
H       -2.0507238986   -2.0798520020   -2.1343768443
H       -2.5910112237   -1.3480929810   -0.6383787807
H        4.7149988100   -0.6713012472   -0.5717492632
H        3.6721271902    0.2248493023   -1.6855458042
H        3.7074850617   -1.5502869512   -1.7388362036
H        4.1000205644   -6.2620169079    2.5470184801
H       -1.8361649193    3.9346456292    2.1712744832
