28   

C       -0.9864268737    0.3276372228    0.5217286876
C       -2.0409293179   -0.5895561708    0.6208349503
C       -1.7878426281    1.4789597657    2.5031851424
C       -3.9210815156    0.3917739006    3.5397769427
C       -2.8339430358    0.5554022866    2.5899844991
C       -0.8416007321    1.3739971440    1.4579459041
C       -2.9510992736   -0.4560481257    1.6616737400
C       -4.6570454247   -0.7109892841    3.1426344409
C       -5.7902527125   -1.3931287484    3.7610273493
C        1.2176053827    2.2844762913    2.5629092041
C       -0.2032470984    3.7696727330    1.0968231785
C        0.3123462973    2.3470642085    1.3292570424
N       -4.0551421684   -1.2375666589    1.9771151746
O       -6.1773432009   -2.5078616311    3.4361591648
O       -6.3724266463   -0.7090149243    4.7738625893
H       -0.2745487592    0.2218109250   -0.2887697189
H       -2.1447390833   -1.3924894751   -0.0980103875
H       -1.7103713854    2.2651787813    3.2438481761
H       -4.1130641019    0.9999335930    4.4155253431
H        0.6734039384    2.5783890095    3.4654251471
H        2.0726794086    2.9562445255    2.4385680699
H        1.5962992099    1.2663591417    2.6984308502
H       -0.8001171059    4.1145135293    1.9465119435
H       -0.8254264466    3.7997430829    0.1966667809
H        0.6363179950    4.4580727481    0.9587473888
H        0.9162824245    2.0657628076    0.4599795339
H       -4.3670007649   -2.0780310494    1.4945253329
H       -7.0858028003   -1.2860295551    5.0903351667
28   

C       -0.7191826568    0.1396812407    0.7973184492
C       -1.7288271593   -0.8220929884    0.9347674520
C       -1.8743683507    1.5911749857    2.3631913724
C       -4.0728014776    0.5522982142    3.3072384975
C       -2.8724243215    0.6206325675    2.4923702127
C       -0.7737908059    1.3587274342    1.5067784137
C       -2.7943183840   -0.5599142932    1.7866936015
C       -4.6811426212   -0.6639054536    3.0512502774
C       -5.8041141019   -1.3321243718    3.7081728754
C        1.0248102802    2.6519760062    2.6881156646
C       -0.1997040826    3.6673069629    0.7277092277
C        0.3382462972    2.3751297962    1.3471069430
N       -3.8866184061   -1.3556509883    2.1081973746
O       -5.9340257219   -2.5466154377    3.7764410529
O       -6.6703734865   -0.4929082225    4.3225613905
H        0.1148395938   -0.0670331023    0.1365952938
H       -1.6780437813   -1.7580947110    0.3929929464
H       -1.9509696248    2.5107392547    2.9299738601
H       -4.4115967767    1.2917218632    4.0227838170
H        0.3239166347    3.0859026827    3.4074582250
H        1.8561632885    3.3502671225    2.5496930081
H        1.4227532009    1.7211836690    3.1047663019
H       -0.9495219036    4.1301453524    1.3763750434
H       -0.6598158030    3.4537148071   -0.2423232781
H        0.6158685215    4.3805489877    0.5729955662
H        1.0935913595    1.9681342028    0.6664297886
H       -4.0548637866   -2.3101726121    1.7973913218
H       -7.3324932682   -1.0709999869    4.7340927706
28   

C       -0.7446381216    0.1688203337    0.7513514053
C       -1.7605237796   -0.7880681797    0.8772919325
C       -1.8844581258    1.6035325325    2.3435031339
C       -4.0776410552    0.5582784488    3.2905572827
C       -2.8882198118    0.6374881374    2.4614915179
C       -0.7881722549    1.3768509130    1.4801722971
C       -2.8211207080   -0.5322266665    1.7373542694
C       -4.6936213610   -0.6508097569    3.0216005853
C       -5.7700641126   -1.3410629969    3.7408592179
C        1.0184175828    2.6416325337    2.6820919545
C       -0.1936584104    3.6894108711    0.7311640447
C        0.3327218307    2.3859254654    1.3362209114
N       -3.9123063634   -1.3301857115    2.0580712378
O       -5.7641513957   -2.5341678982    4.0049147043
O       -6.7434596347   -0.5210654481    4.2005300160
H        0.0865329477   -0.0339046019    0.0858149545
H       -1.7165890671   -1.7167917609    0.3225753197
H       -1.9516076135    2.5134691336    2.9267729416
H       -4.3950422152    1.2790313410    4.0342847441
H        0.3197549063    3.0733836696    3.4048901716
H        1.8559381072    3.3344502916    2.5536142196
H        1.4076487356    1.7029100889    3.0890833066
H       -0.9420686978    4.1495709185    1.3833678333
H       -0.6524060444    3.4909813611   -0.2427150221
H        0.6276355078    4.3984011852    0.5876070436
H        1.0867109545    1.9810403186    0.6527881471
H       -4.0698295130   -2.2867649955    1.7493218315
H       -7.3531768991   -1.0999979757    4.6852314037
28   

C       -0.7784869241    0.1823134000    0.7134647494
C       -1.8011859557   -0.7682145026    0.8332253688
C       -1.8947859066    1.6027738727    2.3345682160
C       -4.0827710294    0.5567259811    3.2907124850
C       -2.9049514450    0.6427372556    2.4465654707
C       -0.8067665196    1.3799711739    1.4599534009
C       -2.8531836122   -0.5166642029    1.7051833235
C       -4.7088442116   -0.6439031980    3.0121550669
C       -5.7521873969   -1.3441299480    3.7827636174
C        1.0149058818    2.6165085281    2.6703123527
C       -0.1953972342    3.6952309326    0.7353331140
C        0.3223845028    2.3810084490    1.3240875748
N       -3.9450091732   -1.3135325356    2.0273559813
O       -5.6274556102   -2.4655034200    4.2472446862
O       -6.8406009459   -0.5867107259    4.0502910183
H        0.0466470216   -0.0177839688    0.0396715989
H       -1.7677565069   -1.6897743544    0.2660040406
H       -1.9495258197    2.5038955427    2.9326207525
H       -4.3785165313    1.2627200291    4.0570304742
H        0.3226882026    3.0466567507    3.4002193822
H        1.8578902712    3.3034940562    2.5462373182
H        1.3975608135    1.6702897438    3.0660269931
H       -0.9382936936    4.1536790172    1.3950187221
H       -0.6585847469    3.5112880798   -0.2392808421
H        0.6310196028    4.3993339825    0.5972546501
H        1.0708521259    1.9774665177    0.6338267471
H       -4.1026019963   -2.2667217959    1.7099065399
H       -7.4119016234   -1.1491938099    4.5970517392
28   

C       -0.7908400388    0.1986735897    0.6994475195
C       -1.8157790177   -0.7490575111    0.8221852284
C       -1.8781928174    1.6038980809    2.3531364704
C       -4.0580945481    0.5560275521    3.3260618367
C       -2.8906980610    0.6466152878    2.4679742985
C       -0.8037264498    1.3874740803    1.4603393312
C       -2.8543569939   -0.5038208547    1.7119258376
C       -4.6915295561   -0.6365995712    3.0422404410
C       -5.7436563493   -1.3296083416    3.8250237614
C        1.0375615989    2.6073586168    2.6586804825
C       -0.1944521314    3.7071906770    0.7494615807
C        0.3269276511    2.3861500748    1.3194931446
N       -3.9462109483   -1.2990365556    2.0382148830
O       -5.5533278557   -2.3220947437    4.5044438432
O       -6.9414979433   -0.7022592474    3.8115845919
H        0.0238112146    0.0035291121    0.0115859059
H       -1.7941762502   -1.6635984011    0.2431880243
H       -1.9209539964    2.4982069031    2.9622758692
H       -4.3407783198    1.2558980689    4.1027105234
H        0.3563123994    3.0331305982    3.4013505002
H        1.8810645320    3.2928243970    2.5297999543
H        1.4222731823    1.6564368160    3.0408845255
H       -0.9276619280    4.1615019503    1.4227144762
H       -0.6704827944    3.5335453088   -0.2208491100
H        0.6321448905    4.4102834763    0.6073734381
H        1.0652185980    1.9867470083    0.6159897894
H       -4.1177960779   -2.2412922569    1.6978127964
H       -7.5114764899   -1.2319467565    4.3913324785
28   

C       -0.7409129203    0.1692338385    0.8096654624
C       -1.7429422015   -0.7940634096    0.9852941932
C       -1.7922539937    1.5820401666    2.4807084004
C       -3.9463953113    0.5322985146    3.5148979507
C       -2.7843268695    0.6106040184    2.6464408693
C       -0.7479923548    1.3700425643    1.5513279006
C       -2.7529405965   -0.5516286441    1.9078617816
C       -4.5678453863   -0.6674623433    3.2654296198
C       -5.7607136132   -1.2733499419    3.9280683613
C        1.1326191938    2.6252957801    2.6392267472
C       -0.2263195740    3.7030385797    0.8045559311
C        0.3512406358    2.3915449108    1.3430224553
N       -3.8345546778   -1.3468141223    2.2642363980
O       -5.7207123935   -2.0011817551    4.8993623941
O       -6.9343357740   -0.9422530017    3.3438272210
H        0.0486783415   -0.0208076675    0.0917955665
H       -1.7300713291   -1.7143352747    0.4151938569
H       -1.8323444278    2.4887947377    3.0713634145
H       -4.2577471854    1.2717186269    4.2423077370
H        0.4853204389    3.0345610613    3.4205899093
H        1.9528345246    3.3285142317    2.4642140182
H        1.5580457062    1.6817046423    2.9955550943
H       -0.9255036854    4.1466015556    1.5197864926
H       -0.7562325430    3.5203430217   -0.1357277873
H        0.5781384517    4.4200103056    0.6131512780
H        1.0545517654    2.0063913407    0.5970061400
H       -4.0457794722   -2.2676715523    1.8904874973
H       -7.6149760424   -1.3888937461    3.8716894885
28   

C       -0.7091570042    0.0989785648    0.9149615956
C       -1.6958933902   -0.8699906314    1.1400715161
C       -1.7279272386    1.5385144065    2.5831287728
C       -3.8724605688    0.5156319156    3.6605215502
C       -2.7064873016    0.5626589378    2.7957423834
C       -0.7081132252    1.3161748228    1.6295391193
C       -2.6829466523   -0.6164453170    2.0842939977
C       -4.4942707223   -0.6959417128    3.4531348401
C       -5.8127149268   -1.1594621454    3.9537379226
C        1.2090963972    2.5936716375    2.6136278763
C       -0.2484032566    3.6545007676    0.8461502806
C        0.3666979937    2.3490532027    1.3590322708
N       -3.7653096209   -1.3995101447    2.4650120265
O       -6.0629183745   -1.5071615922    5.0908484677
O       -6.7349320004   -1.2825028558    2.9706981591
H        0.0591449072   -0.0972633009    0.1759807927
H       -1.6940552475   -1.7993730424    0.5848079283
H       -1.7656583366    2.4611977361    3.1487740028
H       -4.2172260574    1.3032061334    4.3192844239
H        0.5959937409    2.9960753794    3.4256158213
H        2.0114714976    3.3058354900    2.3971883421
H        1.6620917149    1.6552345741    2.9489105895
H       -0.9117671622    4.0976596321    1.5949001744
H       -0.8256542355    3.4644496101   -0.0643421315
H        0.5397146397    4.3762414185    0.6097685837
H        1.0343196649    1.9680992574    0.5788601398
H       -4.0319386226   -2.2903639456    2.0555502442
H       -7.5319442527   -1.6131371085    3.4147354678
28   

C       -0.7026206182    0.1241076046    0.9331136527
C       -1.6959561205   -0.8326536945    1.1813384014
C       -1.6877735762    1.5932678303    2.5953789658
C       -3.8328451403    0.6090382497    3.7041335985
C       -2.6733388842    0.6298821653    2.8303010417
C       -0.6811977414    1.3495857650    1.6332155068
C       -2.6694585957   -0.5585480671    2.1339211119
C       -4.4701540256   -0.6024412540    3.5213735214
C       -5.7970469325   -1.0163893167    4.0153400257
C        1.2703337820    2.6043362048    2.5743304898
C       -0.2087936911    3.6824438093    0.8357603333
C        0.3995727497    2.3693181903    1.3375218999
N       -3.7574279428   -1.3242850901    2.5344131867
O       -6.1430820753   -1.0740225870    5.1799780831
O       -6.6002696767   -1.4865428718    3.0304736898
H        0.0548060616   -0.0881241126    0.1873652607
H       -1.7100481323   -1.7682952102    0.6368623949
H       -1.7105656577    2.5230714765    3.1500863486
H       -4.1683890878    1.4122779585    4.3488660482
H        0.6783443698    3.0136848594    3.3984679658
H        2.0763450769    3.3071014714    2.3413363733
H        1.7190792330    1.6607088245    2.9006442598
H       -0.8491786608    4.1364155577    1.5978932684
H       -0.8084070382    3.4990911735   -0.0615408900
H        0.5838630322    4.3928491274    0.5809051255
H        1.0457742070    1.9791307402    0.5440026606
H       -4.0564640102   -2.2052757006    2.1250103491
H       -7.4164740186   -1.7542228151    3.4825339664
28   

C       -0.7185491499    0.1453971420    0.9037128020
C       -1.7220362005   -0.8037873022    1.1402888605
C       -1.6883420704    1.6049396870    2.5833870785
C       -3.8410039543    0.6292100642    3.6840221314
C       -2.6838838966    0.6492333752    2.8068688536
C       -0.6843175217    1.3621751414    1.6184105987
C       -2.6927765420   -0.5310120688    2.0960503229
C       -4.4920259588   -0.5742330348    3.4858596909
C       -5.8049862226   -0.9857437453    3.9977311689
C        1.2761908674    2.5902924308    2.5775784721
C       -0.1866725255    3.6965246678    0.8430126497
C        0.4076489124    2.3736523435    1.3357553400
N       -3.7876669593   -1.2907458993    2.4894426666
O       -6.2134288495   -0.8290928908    5.1335999578
O       -6.5195811393   -1.7064064886    3.0980026539
H        0.0369865437   -0.0660125770    0.1558232160
H       -1.7456197184   -1.7329378814    0.5851237411
H       -1.7011315017    2.5279564327    3.1496637620
H       -4.1645044764    1.4240941118    4.3453123157
H        0.6854233802    2.9990378006    3.4028862665
H        2.0898707534    3.2869501464    2.3530269656
H        1.7145336059    1.6397918732    2.8980158247
H       -0.8260062054    4.1495650518    1.6066022582
H       -0.7843844135    3.5263630027   -0.0581454283
H        0.6133939962    4.4018614151    0.5974172760
H        1.0531110779    1.9839623022    0.5413978835
H       -4.0987359417   -2.1664621321    2.0766386156
H       -7.3379478999   -1.9412341723    3.5646015915
28   

C       -0.7403497746    0.1702221049    0.8629730585
C       -1.7560337331   -0.7709975845    1.0783350174
C       -1.7069712074    1.6167248986    2.5558119488
C       -3.8732862278    0.6455670734    3.6338154792
C       -2.7145187215    0.6690227311    2.7584753950
C       -0.6981557998    1.3762730685    1.5952409775
C       -2.7310606543   -0.5010272766    2.0304697568
C       -4.5359977470   -0.5478606947    3.4122954464
C       -5.8264074028   -0.9786581975    3.9521444807
C        1.2661731094    2.5700627532    2.5905795795
C       -0.1656482684    3.7135218070    0.8542516751
C        0.4085113834    2.3782549121    1.3370385135
N       -3.8337557716   -1.2567695978    2.4094707457
O       -6.2991767223   -0.6495571103    5.0249264598
O       -6.4499763935   -1.8964190444    3.1707032949
H        0.0191119897   -0.0394039600    0.1185694041
H       -1.7847983275   -1.6925623587    0.5109006951
H       -1.7130846552    2.5310409151    3.1361615080
H       -4.1854079471    1.4266859436    4.3168211301
H        0.6715106418    2.9760139700    3.4144625616
H        2.0902135026    3.2597699391    2.3829664045
H        1.6901106940    1.6108378143    2.9043410976
H       -0.8083550685    4.1641400784    1.6164528618
H       -0.7552776590    3.5609721856   -0.0553403591
H        0.6448033496    4.4128160911    0.6260730188
H        1.0581471089    1.9907791457    0.5450060120
H       -4.1430969797   -2.1354178063    2.0007934405
H       -7.2667836227   -2.1120131983    3.6494275124
28   

C       -0.7424746000    0.2164540439    0.8118334514
C       -1.7697047034   -0.7160247564    1.0097411680
C       -1.6911125862    1.6429879935    2.5316578813
C       -3.8616785239    0.6727133667    3.6019861071
C       -2.7097401054    0.7037907942    2.7175958328
C       -0.6855649565    1.4081574014    1.5662862166
C       -2.7413343794   -0.4518941250    1.9669395051
C       -4.5400916984   -0.5068694271    3.3555514157
C       -5.7976079818   -0.9650496595    3.9413779777
C        1.2833780621    2.5726325672    2.5907553447
C       -0.1223277693    3.7447723202    0.8522112741
C        0.4346215518    2.4000112724    1.3281662467
N       -3.8492601227   -1.2042840391    2.3372943390
O       -6.3343521811   -0.5044209199    4.9328328499
O       -6.3297443055   -2.0337524603    3.2951049306
H        0.0149174510    0.0109418542    0.0641842717
H       -1.8089742205   -1.6271651617    0.4263237459
H       -1.6851008507    2.5456398132    3.1300029973
H       -4.1531775950    1.4343708659    4.3155382628
H        0.6865196502    2.9792771299    3.4126779423
H        2.1168212942    3.2546289101    2.3955357095
H        1.6939337612    1.6064314164    2.9008707475
H       -0.7685497720    4.1938266001    1.6123991195
H       -0.7044428011    3.6058843193   -0.0643869753
H        0.6966400927    4.4386387613    0.6383696979
H        1.0875556384    2.0126980012    0.5387738056
H       -4.1548130323   -2.0879488315    1.9361767575
H       -7.1404082676   -2.2396269797    3.7884606395
28   

C       -0.7819191865    0.2344676765    0.7772702409
C       -1.8239803259   -0.6845613206    0.9601145138
C       -1.7179913336    1.6568754836    2.5073607463
C       -3.9008748495    0.7017331899    3.5659915564
C       -2.7512417746    0.7309735820    2.6785079374
C       -0.7109337101    1.4170243169    1.5448249269
C       -2.7965063139   -0.4160177934    1.9151794799
C       -4.5963085683   -0.4641253137    3.3025064698
C       -5.8215452716   -0.9477713425    3.9326791651
C        1.2683498986    2.5402065466    2.5962840110
C       -0.1047017445    3.7504415129    0.8577558355
C        0.4270732513    2.3927632953    1.3253659841
N       -3.9126727248   -1.1597563174    2.2783024925
O       -6.4421167964   -0.3834280649    4.8158495214
O       -6.2440795717   -2.1388345838    3.4365057625
H       -0.0231858203    0.0249661334    0.0320933443
H       -1.8728189471   -1.5897165265    0.3681659552
H       -1.7004001948    2.5519054105    3.1168279654
H       -4.1728552922    1.4494343770    4.3017116939
H        0.6716408392    2.9489503850    3.4172684999
H        2.1141393599    3.2104903286    2.4139890670
H        1.6609886790    1.5648012060    2.9007555628
H       -0.7502607821    4.2022145406    1.6169036944
H       -0.6811955389    3.6292563171   -0.0648792655
H        0.7267777103    4.4333424443    0.6573574138
H        1.0802635779    2.0023521841    0.5377149932
H       -4.2107457357   -2.0525584565    1.8918953835
H       -7.0526760177   -2.3389843792    3.9356192755
28   

C       -0.7994827035    0.2664453534    0.7399910993
C       -1.8510680248   -0.6446496643    0.9072044407
C       -1.7286477949    1.6759064158    2.4843476806
C       -3.9174267811    0.7216335631    3.5317246204
C       -2.7712541226    0.7577616752    2.6400655428
C       -0.7199097588    1.4382637008    1.5230011278
C       -2.8246528650   -0.3787903953    1.8619344127
C       -4.6235517380   -0.4336223820    3.2503700097
C       -5.8116275527   -0.9527619262    3.9237487212
C        1.2641655400    2.5281360665    2.6014430456
C       -0.0832864235    3.7718166198    0.8664826772
C        0.4304728097    2.4036070373    1.3229373467
N       -3.9442353332   -1.1209409011    2.2176038042
O       -6.5321557814   -0.3307616817    4.6834922571
O       -6.1005667219   -2.2349932497    3.5841004677
H       -0.0392421903    0.0584231757   -0.0040642787
H       -1.9052724922   -1.5426859784    0.3049690450
H       -1.7035779102    2.5618347900    3.1067106007
H       -4.1728513574    1.4516291419    4.2907472018
H        0.6663116531    2.9349639239    3.4225376078
H        2.1187047275    3.1907451007    2.4323287542
H        1.6437601354    1.5452652291    2.8983796272
H       -0.7297905046    4.2218828949    1.6258462157
H       -0.6540744809    3.6667988788   -0.0616585525
H        0.7568700055    4.4479471353    0.6798236135
H        1.0852764935    2.0146171132    0.5359215099
H       -4.2286984203   -2.0231277154    1.8430892449
H       -6.9065169202   -2.4449991377    4.0834020459
28   

C       -0.8611191764    0.2760501625    0.7108724393
C       -1.9256287680   -0.6223125351    0.8646661930
C       -1.7672071511    1.6694175496    2.4800425449
C       -3.9605413343    0.7219725115    3.5239744369
C       -2.8222674426    0.7634189403    2.6227932453
C       -0.7635446105    1.4334908800    1.5129733516
C       -2.8938704352   -0.3582989390    1.8253567656
C       -4.6860709524   -0.4163111872    3.2232415021
C       -5.8386814728   -0.9680592267    3.9368512601
C        1.2287644595    2.4897075926    2.6133036505
C       -0.0916869034    3.7614788497    0.8779503015
C        0.4016768062    2.3840775737    1.3286020947
N       -4.0195321516   -1.0938812690    2.1753972753
O       -6.6632245739   -0.3301812168    4.5660720401
O       -5.9841545651   -2.3054881876    3.7582588300
H       -0.1045202445    0.0689381643   -0.0371414171
H       -1.9928665701   -1.5101062322    0.2487180037
H       -1.7275874354    2.5435890554    3.1180636254
H       -4.1913978706    1.4317567459    4.3094520164
H        0.6317491802    2.9003509052    3.4330733703
H        2.0934191151    3.1414102405    2.4534100900
H        1.5929753790    1.5000645191    2.9069838495
H       -0.7389519498    4.2135303365    1.6355136125
H       -0.6563375588    3.6698175688   -0.0553505847
H        0.7579923340    4.4286966580    0.7027157993
H        1.0569006200    1.9916703970    0.5436320666
H       -4.2970940639   -2.0004257009    1.8067939765
H       -6.7867275876   -2.5335774165    4.2549313947
28   

C       -0.8958369927    0.3007559963    0.6803803257
C       -1.9754721734   -0.5815906240    0.8209408754
C       -1.7866128191    1.6909608886    2.4596829921
C       -3.9938153491    0.7631082391    3.4915516086
C       -2.8566036664    0.8005995597    2.5892926940
C       -0.7827498191    1.4483303838    1.4945042609
C       -2.9432747893   -0.3113845710    1.7804039569
C       -4.7373286877   -0.3591525146    3.1767644894
C       -5.8680229722   -0.9306431795    3.9184847065
C        1.2198048977    2.4620453170    2.6171858757
C       -0.0673851982    3.7691321517    0.8830857517
C        0.3998165365    2.3802867307    1.3260834664
N       -4.0786532200   -1.0355770919    2.1227460006
O       -6.8039965676   -0.3109462785    4.3891141453
O       -5.8585819888   -2.2868311339    3.9318006892
H       -0.1391121639    0.0882958238   -0.0660078607
H       -2.0537387408   -1.4627506812    0.1968282159
H       -1.7346291553    2.5571310557    3.1076331362
H       -4.2058453141    1.4601564702    4.2934025902
H        0.6244153001    2.8766239529    3.4361465882
H        2.0964713467    3.1001383226    2.4681328042
H        1.5652330495    1.4641799828    2.9057061961
H       -0.7126233383    4.2256548356    1.6397018486
H       -0.6267193311    3.6941654736   -0.0548917023
H        0.7944424085    4.4235397273    0.7192747555
H        1.0538919051    1.9830012034    0.5426083791
H       -4.3522471886   -1.9441904276    1.7572077650
H       -6.6627560443   -2.5341128697    4.4162989981
28   

C       -0.9225801046    0.3168659675    0.6560193213
C       -2.0107730611   -0.5566464802    0.7846048669
C       -1.8016102664    1.6928536164    2.4521401401
C       -4.0162755048    0.7696781885    3.4731167595
C       -2.8801300981    0.8110455304    2.5698240012
C       -0.7992549496    1.4528951020    1.4846488194
C       -2.9766600278   -0.2892427372    1.7467960167
C       -4.7699200906   -0.3396920674    3.1436219910
C       -5.8940696780   -0.9315941741    3.8932503350
C        1.2088842490    2.4380287092    2.6240826391
C       -0.0601152071    3.7716089953    0.8966670758
C        0.3928496670    2.3749196490    1.3293697954
N       -4.1176735053   -1.0084326024    2.0803783456
O       -6.9383429236   -0.3764327842    4.1773857444
O       -5.7256790976   -2.2544864253    4.1336120482
H       -0.1670880776    0.1063465679   -0.0921728843
H       -2.0965472604   -1.4293643366    0.1497158054
H       -1.7415033416    2.5498888269    3.1114065010
H       -4.2164515487    1.4540931606    4.2885733266
H        0.6146718638    2.8515189501    3.4444280409
H        2.0921293398    3.0689273360    2.4834530831
H        1.5437893051    1.4345468103    2.9054476029
H       -0.7046057167    4.2270041614    1.6546038618
H       -0.6161134506    3.7097356124   -0.0442493649
H        0.8081268519    4.4197666434    0.7421782612
H        1.0463004367    1.9783659603    0.5449957049
H       -4.3916412616   -1.9114162111    1.7025688707
H       -6.5352176205   -2.5280287971    4.5940711079
28   

C       -0.9246593554    0.2879930799    0.6435400411
C       -1.9992144796   -0.6038964198    0.7579418321
C       -1.8371776749    1.6343504454    2.4456423182
C       -4.0482813151    0.6699306682    3.4391282235
C       -2.9026398899    0.7347687645    2.5487053562
C       -0.8247576100    1.4184606968    1.4827367826
C       -2.9750425797   -0.3601629038    1.7163093983
C       -4.7772240244   -0.4476294908    3.0966810807
C       -5.9288305161   -1.0575531594    3.8076997447
C        1.1706286053    2.4090878112    2.6359606355
C       -0.1198624430    3.7598917983    0.9378428070
C        0.3529055792    2.3610648786    1.3418916275
N       -4.1079970444   -1.0988129503    2.0332556115
O       -7.0651516508   -0.6275459136    3.8273465415
O       -5.6286904173   -2.2533866086    4.3661698480
H       -0.1614989267    0.0962329122   -0.1019165670
H       -2.0671849349   -1.4720375221    0.1146815487
H       -1.7950320321    2.4869575648    3.1119811767
H       -4.2708963713    1.3503288067    4.2519048348
H        0.5715635141    2.7958704847    3.4657725014
H        2.0440959629    3.0559140762    2.5071730268
H        1.5209860768    1.4049457671    2.8953500741
H       -0.7673383601    4.1924886103    1.7064670412
H       -0.6782298565    3.7090162888   -0.0023279506
H        0.7394032129    4.4221215708    0.7931243198
H        1.0097729153    1.9895093943    0.5481756603
H       -4.3739593561   -1.9902676234    1.6246689063
H       -6.4573230899   -2.5562560275    4.7703414666
28   

C       -0.8217982658    0.2400564487    0.7080025932
C       -1.8624561628   -0.6893281084    0.8349866877
C       -1.7635749704    1.5568312083    2.5171145552
C       -3.9601724292    0.5444208695    3.4978403269
C       -2.7970244782    0.6217180325    2.6307380515
C       -0.7540441598    1.3752459590    1.5439504873
C       -2.8371058946   -0.4778481588    1.8021146079
C       -4.6512399243   -0.5942563146    3.1606607866
C       -5.9479945077   -1.1089150896    3.6923408626
C        1.2361648930    2.4194870988    2.6491028523
C       -0.1534841305    3.7538744373    1.0173712901
C        0.3808890529    2.3654036942    1.3805928592
N       -3.9578269327   -1.2386873313    2.1092291885
O       -7.0409112536   -0.8423953158    3.2349022983
O       -5.8117751467   -1.9273953535    4.7599953954
H       -0.0626398336    0.0766705094   -0.0482320764
H       -1.9100894123   -1.5565435433    0.1886517887
H       -1.7494535011    2.4160540823    3.1760691467
H       -4.2459133845    1.2614169835    4.2574953731
H        0.6479628380    2.7657300600    3.5042607602
H        2.0800049303    3.1018821239    2.5073001775
H        1.6318836799    1.4244333468    2.8762445947
H       -0.7882443929    4.1521748154    1.8145279554
H       -0.7414926657    3.6996501287    0.0956187590
H        0.6772426265    4.4478589945    0.8555772154
H        1.0243822913    2.0326875706    0.5591632436
H       -4.2438585106   -2.0939218153    1.6412095020
H       -6.7168098947   -2.1770568031    5.0049014430
28   

C       -0.7439333113    0.1573020995    0.7589652520
C       -1.7460489024   -0.8104433851    0.9105951421
C       -1.6912272845    1.4398085393    2.5891266100
C       -3.8513081735    0.3746548659    3.5871694686
C       -2.6873688219    0.4681788653    2.7247113543
C       -0.6992292078    1.2956516399    1.5923503925
C       -2.7061738750   -0.6339505924    1.8992476969
C       -4.5177212593   -0.7890634660    3.2618941724
C       -5.8931500848   -1.1982705473    3.6370293352
C        1.2926276447    2.4020259628    2.6248738571
C       -0.2159166139    3.7073400386    1.0779237431
C        0.3858861158    2.3342737248    1.3939591127
N       -3.8084795605   -1.4199568772    2.2124468961
O       -6.8444208643   -1.1888765178    2.8768579809
O       -6.0403220827   -1.4929312860    4.9485503657
H        0.0001890509    0.0239708206   -0.0178206226
H       -1.7804771011   -1.6758810760    0.2610400833
H       -1.6985555308    2.3030937897    3.2428486678
H       -4.1830487715    1.1176636659    4.3018709021
H        0.7278011515    2.7086560565    3.5104322743
H        2.1011776660    3.1209388289    2.4599424874
H        1.7374132809    1.4202214625    2.8158878597
H       -0.8267152608    4.0713674688    1.9093984317
H       -0.8436981923    3.6449608996    0.1833096473
H        0.5803566114    4.4342378647    0.8894052225
H        1.0041552608    2.0401148143    0.5391333421
H       -4.1146631368   -2.2441355112    1.7024056942
H       -6.9828614551   -1.6956138311    5.0585109258
28   

C       -0.7579532952    0.1641742245    0.7396817760
C       -1.7583702820   -0.8059004836    0.8876010706
C       -1.6846094958    1.4183083303    2.5998602855
C       -3.8344114143    0.3388104427    3.6042226102
C       -2.6790920549    0.4445155653    2.7316947081
C       -0.7040827130    1.2897847747    1.5896982685
C       -2.7073042298   -0.6447428064    1.8895191944
C       -4.5059452877   -0.8219427994    3.2684075845
C       -5.8724523689   -1.2385256555    3.6315096434
C        1.2965737689    2.3858076154    2.6170212971
C       -0.2290757541    3.7081839240    1.1016550814
C        0.3779006424    2.3322068991    1.3942876685
N       -3.8073604754   -1.4343686585    2.2013600639
O       -6.7562650720   -1.4747885331    2.8241463212
O       -6.1182816138   -1.2205327004    4.9616010100
H       -0.0227172058    0.0429275754   -0.0474709162
H       -1.8004856053   -1.6611989755    0.2251654646
H       -1.6849371363    2.2717161837    3.2664774970
H       -4.1605174108    1.0714950284    4.3322091584
H        0.7401517810    2.6806537895    3.5118481685
H        2.1025563658    3.1078344799    2.4531285362
H        1.7444281710    1.4023041246    2.7913694675
H       -0.8324665694    4.0604193295    1.9435617951
H       -0.8653625994    3.6561814891    0.2123971346
H        0.5641625943    4.4388183840    0.9148059153
H        0.9882049618    2.0498721132    0.5298077107
H       -4.1307904999   -2.2420418301    1.6748275399
H       -7.0537276705   -1.4634179839    5.0491588566
28   

C       -0.7797442805    0.1994994997    0.7074049958
C       -1.7853687823   -0.7663853099    0.8463522033
C       -1.6867347876    1.4299958056    2.5930833112
C       -3.8314042601    0.3422325033    3.6013901004
C       -2.6862640074    0.4602452238    2.7164756789
C       -0.7133614051    1.3111197461    1.5747611724
C       -2.7266096169   -0.6152284233    1.8569190681
C       -4.5104849702   -0.8114995654    3.2529426883
C       -5.8466392577   -1.2737979431    3.6447136256
C        1.2973653155    2.3808102031    2.6116556208
C       -0.2233625457    3.7313751206    1.1161796092
C        0.3755512583    2.3482505583    1.3904088700
N       -3.8258875025   -1.4060633383    2.1674866724
O       -6.6656075215   -1.7429806067    2.8685574269
O       -6.1574118935   -1.0352911389    4.9399845372
H       -0.0496371529    0.0854199297   -0.0855710081
H       -1.8363657864   -1.6118374328    0.1719796739
H       -1.6763797549    2.2719568131    3.2740325202
H       -4.1416043551    1.0567176714    4.3541487302
H        0.7452184410    2.6687846236    3.5113441591
H        2.1079423632    3.0991949882    2.4545322680
H        1.7388936219    1.3922620261    2.7731774403
H       -0.8231939198    4.0764359627    1.9635941034
H       -0.8615301157    3.6942930640    0.2275234306
H        0.5740175430    4.4594114180    0.9370379493
H        0.9822676917    2.0725621577    0.5212696461
H       -4.1575974749   -2.2098017654    1.6391337713
H       -7.0704259618   -1.3480305746    5.0422233589
28   

C       -0.8191472131    0.2272864047    0.6715720566
C       -1.8334305493   -0.7304084102    0.8032313585
C       -1.7038817603    1.4415362809    2.5784247906
C       -3.8450890314    0.3524985424    3.5947048168
C       -2.7118456034    0.4796967695    2.6951691024
C       -0.7369706017    1.3263378768    1.5534575166
C       -2.7672406291   -0.5837369497    1.8212067440
C       -4.5345213537   -0.7925578969    3.2365307664
C       -5.8312240936   -1.3082785185    3.6743937770
C        1.2859676344    2.3634034642    2.6014520558
C       -0.2198968617    3.7442865639    1.1185295840
C        0.3639780908    2.3524613439    1.3797393084
N       -3.8663979444   -1.3734353398    2.1341139486
O       -6.5694137211   -1.9889497970    2.9756171731
O       -6.2047021930   -0.9014872565    4.9101919565
H       -0.0935789894    0.1157075358   -0.1259114521
H       -1.8951638678   -1.5677018579    0.1196185688
H       -1.6799564362    2.2729163111    3.2719256487
H       -4.1330539083    1.0473602536    4.3743060540
H        0.7373066716    2.6497567087    3.5037748152
H        2.1048198162    3.0737573467    2.4508277931
H        1.7161402889    1.3684643482    2.7542102079
H       -0.8168989451    4.0870802761    1.9688701453
H       -0.8576478101    3.7224149197    0.2290768943
H        0.5853071348    4.4655175813    0.9470901120
H        0.9680710829    2.0781585241    0.5083366603
H       -4.1998256920   -2.1830161186    1.6150538353
H       -7.0835791417   -1.2893339712    5.0483982890
28   

C       -0.8908767004    0.2301011082    0.6208613535
C       -1.9188738245   -0.7134143324    0.7474810440
C       -1.7422725171    1.4321059855    2.5507064114
C       -3.8808115058    0.3506523709    3.5824137867
C       -2.7634884439    0.4838191874    2.6633745863
C       -0.7848746889    1.3155536278    1.5169097103
C       -2.8420944174   -0.5664212569    1.7749188062
C       -4.5873763992   -0.7815025797    3.2157750104
C       -5.8371037687   -1.3473621823    3.7156515751
C        1.2532105044    2.3147240715    2.5758923569
C       -0.2276555659    3.7250726986    1.0953552097
C        0.3339320575    2.3235400995    1.3518057465
N       -3.9432604645   -1.3506544895    2.0936515006
O       -6.4818163694   -2.2064048139    3.1287967693
O       -6.2681337805   -0.8125004056    4.8822338762
H       -0.1720664576    0.1169901196   -0.1825038579
H       -1.9972071068   -1.5420376258    0.0550476686
H       -1.6982882322    2.2519853854    3.2568102281
H       -4.1368763008    1.0229414517    4.3924200039
H        0.7078632443    2.6074803168    3.4781426817
H        2.0842824713    3.0116595911    2.4295162926
H        1.6663318173    1.3122227701    2.7263181368
H       -0.8229338142    4.0720474586    1.9452367794
H       -0.8622522549    3.7169785693    0.2034209717
H        0.5889706586    4.4348964897    0.9305534598
H        0.9361837511    2.0432386660    0.4810371198
H       -4.2759777007   -2.1705978475    1.5901447212
H       -7.1027126915   -1.2687436571    5.0754360899
28   

C       -0.9242982466    0.2957632148    0.5687669184
C       -1.9643005878   -0.6367166791    0.6774074791
C       -1.7570471692    1.4679613199    2.5249650165
C       -3.8931746733    0.3776671001    3.5531632264
C       -2.7894559447    0.5299501595    2.6205539955
C       -0.8026224798    1.3604746942    1.4874097197
C       -2.8834676496   -0.4997279335    1.7098119355
C       -4.6110752842   -0.7411827637    3.1681267914
C       -5.8023309394   -1.3745190379    3.7238753191
C        1.2434415707    2.3144845848    2.5756823386
C       -0.2071454816    3.7656576258    1.1045746803
C        0.3328210261    2.3532171387    1.3453705961
N       -3.9849730524   -1.2852651662    2.0236562203
O       -6.3227331952   -2.3789757096    3.2558742072
O       -6.3065837713   -0.7606171150    4.8201213878
H       -0.2068650960    0.1888044376   -0.2366683190
H       -2.0524083580   -1.4517028889   -0.0298830382
H       -1.6990275499    2.2699956411    3.2502941389
H       -4.1200566745    1.0162630921    4.3983813042
H        0.6968253954    2.6040321577    3.4781783998
H        2.0859931015    3.0005027320    2.4440074998
H        1.6404524430    1.3040191492    2.7159386677
H       -0.8047042039    4.1081942694    1.9546794328
H       -0.8345247524    3.7787629512    0.2076182476
H        0.6204686705    4.4663503707    0.9564573642
H        0.9375648626    2.0760033358    0.4753413332
H       -4.3057216293   -2.1159643903    1.5298939085
H       -7.0822978532   -1.2878550724    5.0697343513
