56

C     -2.64341   -1.20404   -0.98607
C     -1.76926   -0.09074   -0.69205
C     -0.71598   -0.46343    0.09876
C     -3.86671   -1.19191   -1.76951
C     -2.22478   -2.38821   -0.41342
C     -4.04245   -3.65225   -1.34961
C     -1.99159    1.30869   -1.19405
C     -8.32035   -2.23122   -2.43959
C     -6.93294   -0.95412   -0.78097
C     -7.54607   -4.57054   -0.94169
C      0.43112    0.36645    0.60318
C     -1.35414   -5.48307   -1.02099
C     -2.33867   -4.83731   -0.03951
C     -5.83899   -2.47701   -2.51608
C      3.40578    1.88721   -1.18605
C      2.52468    1.45813   -0.01369
C     -0.64893   -6.68473   -0.41947
C     -7.05119   -2.25779   -1.57405
N     -4.54265   -2.43736   -1.82330
N     -2.89306   -3.58084   -0.55738
N      4.61497    2.56185   -0.68749
N      1.32031    0.77510   -0.49090
O     -4.32186   -0.20674   -2.34758
O     -4.55591   -4.73515   -1.60969
O     -7.09832   -3.27437   -0.55798
F     -1.58720   -7.66184   -0.04200
S     -0.76002   -2.18538    0.49689
H     -2.94447    1.70285   -0.82856
H     -1.17596    1.96435   -0.88591
H     -2.05167    1.31830   -2.28555
H     -8.40508   -3.11268   -3.08261
H     -9.20789   -2.18206   -1.80161
H     -8.31503   -1.34661   -3.08352
H     -6.08676   -1.00388   -0.09091
H     -7.84036   -0.81242   -0.18688
H     -6.79010   -0.09716   -1.44174
H     -7.36841   -5.21590   -0.07854
H     -6.98038   -4.97478   -1.78704
H     -8.61956   -4.57559   -1.17186
H      0.04347    1.27612    1.07809
H      0.96447   -0.18631    1.39769
H     -0.58572   -4.75773   -1.31519
H     -1.89483   -5.78146   -1.92408
H     -1.85467   -4.61665    0.91747
H     -3.17310   -5.50930    0.15255
H     -5.91851   -3.44365   -3.01222
H     -5.82258   -1.69031   -3.27014
H      2.79985    2.49177   -1.87882
H      3.72661    0.99391   -1.73697
H      3.12590    0.84805    0.68215
H      2.20473    2.34914    0.54388
H     -0.08785   -6.41499    0.48271
H      0.03103   -7.14868   -1.14039
H      4.36062    3.46357   -0.28595
H      5.24071    2.76459   -1.46500
H      1.58638   -0.05566   -1.01798
