69

C     -1.52843    2.88827   -1.01922
C     -0.51711    3.43470   -0.20841
C     -1.64616    1.50860   -1.12358
C      0.35437    2.61162    0.49957
C     -0.76679    0.65865   -0.42744
C      0.22593    1.21974    0.39724
C     -0.84633   -0.80500   -0.59819
C      0.32135   -1.61543    0.01109
C      0.72841   -0.93514    1.36086
C     -0.43900   -0.93408    2.36589
C      2.30494   -5.06734    4.95372
C      5.76719   -3.71870    5.00626
C      1.93959   -3.94177   -4.41907
C      2.04251   -6.55842   -0.70430
C      1.47226   -1.49919   -1.03312
C     -0.14977   -3.08158    0.19769
C      1.98481   -1.55354    1.97924
C      2.42997   -0.97749    3.32649
C      2.66715   -3.58200    4.99701
C      4.81180   -3.87073    3.80963
C      3.68672   -1.69935    3.83834
C      1.12585   -2.13166   -2.39011
C      0.95315   -4.14717    0.31418
N      3.53081   -3.15787    3.89083
O     -1.72948   -1.33942   -1.26048
O      3.47004   -1.86702   -3.69343
O      3.17972   -3.80772   -2.07259
O     -0.49008   -6.41453    0.15094
O      0.15268   -5.22277   -2.00686
O      1.10287    0.45624    1.09919
S      2.60845   -2.90679   -3.10433
S      0.49260   -5.63948   -0.62612
H     -2.20598    3.54113   -1.56149
H     -0.41569    4.51371   -0.12410
H     -2.40580    1.04974   -1.74944
H      1.13111    3.02100    1.13855
H     -0.25654   -0.17896    3.13254
H     -0.52395   -1.90417    2.86161
H     -1.40065   -0.71064    1.89801
H      1.90744   -5.33894    3.96967
H      3.16270   -5.71275    5.16439
H      1.53869   -5.28672    5.70421
H      6.03082   -2.67086    5.18261
H      5.33205   -4.11651    5.92879
H      6.69544   -4.26821    4.81504
H      2.79995   -4.41910   -4.89219
H      1.27238   -4.67675   -3.96685
H      1.42091   -3.30300   -5.13623
H      1.81561   -7.48463   -1.23582
H      2.76920   -5.95362   -1.24854
H      2.37108   -6.77881    0.31307
H      2.36173   -1.98230   -0.62982
H      1.74112   -0.45166   -1.17423
H     -0.79012   -3.30949   -0.65578
H     -0.80961   -3.14834    1.06297
H      1.82460   -2.62257    2.11388
H      2.81672   -1.44859    1.27693
H      2.65701    0.08918    3.22861
H      1.62811   -1.05584    4.06635
H      3.10551   -3.33602    5.98197
H      1.74052   -3.00371    4.92828
H      4.60253   -4.93284    3.64823
H      5.31388   -3.52312    2.89989
H      3.97008   -1.27339    4.81765
H      4.51309   -1.48201    3.15202
H      0.39752   -2.93878   -2.31627
H      0.77364   -1.39908   -3.11896
H      1.90737   -3.84454   -0.11493
H      1.11709   -4.48953    1.33771
