64

C      4.34786    0.95912    3.64555
C      5.87861   -0.86850    3.26217
C      5.35696    1.68934    4.27874
C      6.90191   -0.15254    3.88867
C      4.59444   -0.31976    3.12434
C      3.51431   -1.08890    2.43557
C      3.06129   -0.69563    1.16311
C      2.95406   -2.22221    3.05626
C      6.62064    1.11714    4.38323
C      2.02134   -1.44570    0.57576
C      1.96824   -2.94038    2.35608
C      1.17420    3.97401   -1.80630
C      1.02742    4.01973   -0.27843
C      2.07444    2.81004   -2.24547
C      2.40051    4.06498    0.40919
C      3.44057    2.87040   -1.54793
C      3.30938    2.89927   -0.01388
C     -0.02908   -0.51351   -0.50768
C      1.35347   -2.27203   -1.71398
C      1.34095   -5.32303    1.83263
C     -0.10165   -3.91756    3.37765
C      3.66136    0.49677    0.45017
C      3.40195   -2.64551    4.43197
C      1.38386   -1.07275   -0.75349
C      1.33055   -4.21251    2.89555
N      1.51123   -2.53306    1.16574
N      2.73880    1.63842    0.48693
O      4.41506   -3.66223    4.29463
F      7.61076    1.81959    4.99398
H      3.35200    1.38677    3.56755
H      6.07183   -1.86651    2.88190
H      5.17541    2.67909    4.68645
H      7.90075   -0.56459    3.99619
H      1.61060    4.92065   -2.15622
H      0.18802    3.88992   -2.27799
H      0.43456    4.89256    0.02039
H      0.48149    3.13088    0.05757
H      1.58424    1.86277   -1.99627
H      2.21157    2.82583   -3.33330
H      2.90707    5.00463    0.15390
H      2.28344    4.06439    1.50173
H      4.06935    2.02997   -1.86188
H      3.97211    3.78025   -1.85719
H      4.31425    3.06608    0.41587
H     -0.65668   -1.26288   -0.01476
H     -0.50082   -0.23703   -1.45744
H      0.01677    0.37917    0.12335
H      0.75977   -3.08779   -1.29370
H      2.36288   -2.65341   -1.90427
H      0.91431   -1.97770   -2.67374
H      0.76444   -5.02162    0.95455
H      0.90449   -6.24110    2.24150
H      2.36324   -5.54506    1.50959
H     -0.71116   -3.55040    2.54599
H     -0.11024   -3.15499    4.16494
H     -0.57061   -4.82402    3.77651
H      4.64055    0.74174    0.88761
H      3.85068    0.23608   -0.59539
H      3.80373   -1.78275    4.97434
H      2.55197   -3.03305    5.00701
H      1.96881   -0.27455   -1.21222
H      1.92061   -4.56872    3.74301
H      2.44456    1.77478    1.45197
H      4.71260   -3.90557    5.18614
