49

C     -0.24293    3.37599    4.91791
C      1.25606   -1.90358   -0.48348
C     -1.03516    2.86576    3.88721
C      0.19455   -1.31073    0.19928
C     -0.18156    2.72743    6.15512
C      3.61152   -2.51765   -2.27839
C      1.82585   -0.31887    1.69170
C      4.58092   -3.29712   -0.24248
C     -1.71088    1.03180    5.30969
C      4.54287   -3.30720   -2.95366
C      2.60064   -1.73696   -0.11171
C      3.61960   -2.50034   -0.87628
C      2.90015   -0.90050    0.99648
C     -1.77463    1.68673    4.07145
C      0.49587   -0.51360    1.31315
C     -0.92646    1.56105    6.33432
C      5.48108   -4.05157   -0.99876
C      4.25035   -0.55380    1.45552
C     -1.82898    0.24026    1.91379
C     -4.00483    0.68316    3.18230
C     -3.71467    1.90347    2.35530
C     -2.56183    1.09576    2.94046
C      6.56497   -4.85914   -0.32652
N      6.34104   -0.15399    1.54225
N      5.46426   -4.06716   -2.34739
N      5.38409   -0.62604    0.72775
N      4.48294   -0.04713    2.68881
N      5.80233    0.18692    2.71644
N     -0.48446    0.13704    2.10747
O     -2.45111   -0.29091    0.98908
Cl    -0.86797    0.73186    7.88546
H      0.34160    4.27816    4.75987
H      1.03066   -2.55581   -1.32356
H     -1.07239    3.37047    2.92543
H     -0.83095   -1.46394   -0.10693
H      0.43711    3.11186    6.95952
H      2.90703   -1.90678   -2.83650
H      2.07334    0.31442    2.54029
H      4.64320   -3.31150    0.84005
H     -2.26394    0.11077    5.46557
H      4.55116   -3.32652   -4.04418
H     -4.39440    0.82659    4.18566
H     -4.33922   -0.20528    2.65764
H     -3.85593    1.82521    1.28258
H     -3.89747    2.87857    2.79703
H      6.79398   -5.75344   -0.91270
H      7.48059   -4.26014   -0.25176
H      6.27969   -5.15143    0.68837
H     -0.10491    0.63401    2.90371
