25   

C        0.0068812845   -0.0810838633    1.3458992116
C        1.6315915788   -0.6648274863    2.9781618795
C       -0.8535705993   -1.0031523147    1.9414200811
C        1.2903646388    0.0991544980    1.8649608425
C        0.7114613325   -1.5718255180    3.5098638903
C        2.3068155728    1.0640187604    1.3402247223
C        2.8336470608    4.1089752209    0.8928310250
C        2.3050046265   -2.4958917386    5.2195318556
C        2.6594767868    2.9351753419   -0.0658278588
N       -0.5059785750   -1.7384574021    3.0068026630
N        0.9822363919   -2.3719285953    4.5945038817
O        3.4815465536    1.0179519160    1.6971526710
O        1.7633965729    1.9602501259    0.4871598488
H       -0.3312160557    0.4859975009    0.4874206075
H        2.6076860327   -0.5615594034    3.4313673667
H       -1.8459626177   -1.1317087532    1.5250602829
H        1.8632506340    4.5666933663    1.1069457798
H        3.2856292721    3.7729908389    1.8309988531
H        3.4869415174    4.8621226560    0.4427666812
H        3.0576331624   -2.7700245685    4.4726692050
H        2.2829551209   -3.2792422187    5.9837904354
H        2.5914533149   -1.5549724861    5.7006518777
H        3.6356502835    2.4913422781   -0.2915593978
H        2.2423410347    3.3015891200   -1.0090687664
H        0.2079583437   -2.9812757956    4.8332241308
25   

C       -0.0024640118   -0.1855660102    1.2506491713
C        1.6132868913   -0.6612449422    2.9260970329
C       -0.8582949881   -1.0839568515    1.8878618307
C        1.2749854004    0.0322566773    1.7672048216
C        0.6986068161   -1.5484929464    3.4987563787
C        2.2751099011    0.9929847864    1.2060392413
C        2.9399172660    4.0421264625    1.0446172613
C        2.2868282566   -2.3591706469    5.2692587765
C        2.5523383843    3.0061487984   -0.0058431082
N       -0.5119825623   -1.7569848274    2.9943491055
N        0.9676021197   -2.2826234572    4.6294298484
O        3.4802315813    0.8495009494    1.3947095272
O        1.6782889778    2.0174135929    0.5575825281
H       -0.3372284425    0.3365466477    0.3628667723
H        2.5846049959   -0.5170488767    3.3784096070
H       -1.8460812914   -1.2447411891    1.4717549900
H        2.0430531140    4.5190934610    1.4509950607
H        3.4953692576    3.5702011911    1.8607323265
H        3.5734881615    4.8104831311    0.5920557423
H        3.0481930900   -2.6626589609    4.5428813183
H        2.2675933213   -3.1024402333    6.0726285028
H        2.5590257264   -1.3915318555    5.7033346746
H        3.4543449717    2.5440464328   -0.4226676832
H        2.0328625055    3.5071429555   -0.8287208661
H        0.1986092119   -2.8882643761    4.8934210068
25   

C       -0.0021549066   -0.2886291979    1.1555677724
C        1.6014939278   -0.6426243889    2.8713682775
C       -0.8464466637   -1.1728860987    1.8272911765
C        1.2641710229   -0.0203196030    1.6729261234
C        0.6994949129   -1.5202553728    3.4779164744
C        2.2388730825    0.9462395074    1.0763455470
C        3.0669169227    3.9589590180    1.1817616677
C        2.2831567414   -2.2060961541    5.3040832313
C        2.4691802833    3.0817319779    0.0863117934
N       -0.4994264170   -1.7818418969    2.9702486964
N        0.9696531364   -2.1883055948    4.6485050490
O        3.4468729974    0.7278370860    1.0820432212
O        1.6224066748    2.0714178149    0.6528364361
H       -0.3360440802    0.1858723711    0.2412477901
H        2.5641428426   -0.4500655016    3.3239294240
H       -1.8257626807   -1.3751339922    1.4092585048
H        2.2688979776    4.4218873843    1.7698575219
H        3.7012987126    3.3634966138    1.8452593251
H        3.6775547165    4.7480509173    0.7333657698
H        3.0586926006   -2.5265601424    4.6003440822
H        2.2710106198   -2.9113188891    6.1411920747
H        2.5298093023   -1.2135215141    5.6949413873
H        3.2718548737    2.6343140542   -0.5107255100
H        1.8715158994    3.7052993195   -0.5859662215
H        0.2112026085   -2.7980170312    4.9329628970
25   

C       -0.0108735952   -0.4012264400    1.0665627016
C        1.5751150576   -0.6201675352    2.8195098734
C       -0.8342010633   -1.2852308870    1.7643729148
C        1.2360438471   -0.0650175702    1.5894988981
C        0.6954040218   -1.5024056216    3.4516304473
C        2.1794534535    0.9113924770    0.9554244961
C        3.2269109579    3.8390047317    1.2784969217
C        2.2733127229   -2.0506827769    5.3287293882
C        2.4096019687    3.1389516334    0.1974153187
N       -0.4847615076   -1.8299624111    2.9385732505
N        0.9702896618   -2.1075741428    4.6548495229
O        3.3555567191    0.6294462145    0.7488044644
O        1.5883533516    2.1112718599    0.7700226404
H       -0.3455910001    0.0202879926    0.1270887478
H        2.5231783554   -0.3721113473    3.2752134580
H       -1.7984917728   -1.5414327741    1.3410305458
H        2.5618682878    4.2652759386    2.0354699636
H        3.9103537451    3.1325169838    1.7591297326
H        3.8172730817    4.6453107778    0.8335822900
H        3.0707705548   -2.3701755225    4.6494780989
H        2.2739135181   -2.7219662417    6.1933858260
H        2.4775417366   -1.0348580870    5.6825483016
H        3.0789759647    2.7286245563   -0.5671072204
H        1.7631454795    3.8724659544   -0.2945866669
H        0.2299941669   -2.7324905617    4.9539110583
25   

C       -0.0356912481   -0.5032050523    0.9955149769
C        1.5073228748   -0.5633423129    2.7973350023
C       -0.8241070240   -1.4123611742    1.7013134145
C        1.1693194218   -0.0679607045    1.5422480382
C        0.6649963299   -1.4768950698    3.4361046565
C        2.0741851249    0.9292091628    0.8797495816
C        3.3788912255    3.7274214738    1.3408432618
C        2.2236983683   -1.8757480682    5.3663336559
C        2.3405048712    3.2165350711    0.3469461830
N       -0.4778111335   -1.8933589602    2.9038135312
N        0.9426231668   -2.0258347657    4.6653632091
O        3.1685401243    0.6076381287    0.4290624159
O        1.5506166020    2.1719013569    0.9327287296
H       -0.3643190546   -0.1413110443    0.0294974278
H        2.4256159906   -0.2441953121    3.2687642357
H       -1.7565155802   -1.7442501934    1.2595172561
H        2.8849415999    4.0903907432    2.2470799209
H        4.0774159537    2.9289793403    1.6087950453
H        3.9460461091    4.5497552166    0.8950768525
H        3.0545081789   -2.1631907218    4.7132384529
H        2.2434431424   -2.5255031583    6.2470688969
H        2.3591447292   -0.8415426114    5.6992609421
H        2.8385890366    2.8697688061   -0.5655040042
H        1.6787574313    4.0412736542    0.0642385226
H        0.2336738173   -2.6863626015    4.9640298519
25   

C       -0.0350451320   -0.6214212673    0.9241988094
C        1.4465039748   -0.5115178132    2.7729245118
C       -0.7698954945   -1.5754851701    1.6283453947
C        1.1049630317   -0.0657313930    1.5003941698
C        0.6611541964   -1.4765357459    3.4088659619
C        1.9627876354    0.9576757738    0.8134414703
C        3.5371200584    3.5983220379    1.3240245672
C        2.1919554664   -1.7150845122    5.3875785009
C        2.2984089739    3.2756364359    0.4941290361
N       -0.4269579748   -1.9963437445    2.8539832648
N        0.9459303406   -1.9770110471    4.6570298906
O        2.9035928753    0.6344003612    0.0965406791
O        1.5505995361    2.2105863176    1.0979212205
H       -0.3526546348   -0.3205578310   -0.0661848985
H        2.3223346671   -0.1116956107    3.2627780337
H       -1.6539529304   -1.9970872114    1.1642115648
H        3.2462137711    3.8705997838    2.3429881042
H        4.2081022360    2.7347833043    1.3614496874
H        4.0761957377    4.4377804118    0.8753577428
H        3.0600257529   -1.9451463077    4.7607418415
H        2.2397518185   -2.3483470424    6.2791916496
H        2.2360798436   -0.6685983882    5.7064260654
H        2.5930455334    3.0201969481   -0.5299692188
H        1.6622881541    4.1646209652    0.4385937610
H        0.2837517050   -2.6871739362    4.9492756818
25   

C       -0.0277104468   -0.7187256906    0.8644980866
C        1.3754249784   -0.4491834931    2.7559473177
C       -0.6980889180   -1.7240462433    1.5612459200
C        1.0313365455   -0.0455824336    1.4697048514
C        0.6585214620   -1.4712831321    3.3836946568
C        1.8358574251    1.0114430516    0.7719612644
C        3.6636307972    3.4768743945    1.2804889845
C        2.1440299384   -1.5498638353    5.4095512933
C        2.2765747157    3.3321216861    0.6618524702
N       -0.3613902176   -2.0930040106    2.8051001648
N        0.9493003219   -1.9303819813    4.6462906374
O        2.5741056813    0.7392415448   -0.1686558377
O        1.5694971188    2.2396673084    1.2656115009
H       -0.3292018130   -0.4701578210   -0.1454313102
H        2.1987173651    0.0306094860    3.2646733218
H       -1.5220013913   -2.2330944723    1.0746570298
H        3.5791390873    3.6306265339    2.3604511670
H        4.2619964975    2.5803344023    1.0918452580
H        4.1782508404    4.3366098639    0.8416375217
H        3.0479769426   -1.7095408956    4.8122535795
H        2.2201209323   -2.1656053615    6.3114175936
H        2.0855153669   -0.4998116668    5.7140199684
H        2.3646652836    3.1958449731   -0.4218596351
H        1.7105542557    4.2537308441    0.8299848296
H        0.3430623449   -2.6922400073    4.9297291370
25   

C       -0.0086087809   -0.7793747503    0.8176323523
C        1.3109634356   -0.3814774233    2.7450938763
C       -0.6141769522   -1.8317406472    1.5037212930
C        0.9698053838   -0.0121552857    1.4471367435
C        0.6627018188   -1.4550432580    3.3615691916
C        1.7132082991    1.0875839118    0.7530705716
C        3.7586092703    3.3800018835    1.2212384168
C        2.0880058569   -1.3943878421    5.4311549412
C        2.2811275756    3.3824320139    0.8405225377
N       -0.2854819069   -2.1625251586    2.7602739235
N        0.9554093133   -1.8820952218    4.6349155051
O        2.2447658641    0.9101299675   -0.3381006989
O        1.6120859241    2.2560960688    1.4249874581
H       -0.2952093997   -0.5667027381   -0.2050174700
H        2.0782821891    0.1663175672    3.2725194814
H       -1.3769286671   -2.4118670186    0.9973631424
H        3.8661694342    3.3978170531    2.3099174292
H        4.2537062610    2.4873161175    0.8269337541
H        4.2513335193    4.2631531809    0.8043273502
H        3.0214116907   -1.4837660896    4.8653589991
H        2.1853583587   -1.9920342242    6.3430936292
H        1.9317184026   -0.3498366568    5.7196443435
H        2.1775512319    3.3824136975   -0.2503450168
H        1.8158686415    4.3006292814    1.2125990529
H        0.4052281806   -2.6887340463    4.9086579251
25   

C        0.0460129096   -0.8233020117    0.7748368634
C        1.2668838117   -0.3354897300    2.7450069431
C       -0.5027289800   -1.9198999556    1.4385740576
C        0.9446829862    0.0132579000    1.4358329513
C        0.6795968180   -1.4563581808    3.3381349880
C        1.6187093045    1.1674762983    0.7636076975
C        3.8305575606    3.3160041045    1.1465375792
C        2.0219021135   -1.2943037583    5.4574003011
C        2.3131573317    3.4149341415    1.0209286692
N       -0.1925190413   -2.2301948394    2.7047385113
N        0.9601829846   -1.8654829086    4.6200818990
O        1.9595920038    1.1094847852   -0.4137370673
O        1.6882116498    2.2482142631    1.5742785240
H       -0.2229584890   -0.6282734575   -0.2563420618
H        1.9732504088    0.2634626144    3.3013929485
H       -1.2035890456   -2.5524536201    0.9062079875
H        4.1138350464    3.1958787667    2.1964930566
H        4.2069339143    2.4625351174    0.5743065371
H        4.2958816881    4.2266553990    0.7583006482
H        2.9803652350   -1.3145197830    4.9279819965
H        2.1281388397   -1.8823318085    6.3745794267
H        1.7775795545   -0.2640171350    5.7359033447
H        2.0345553081    3.5527564699   -0.0298391699
H        1.9639919440    4.2954425155    1.5693461305
H        0.4610869248   -2.7105669977    4.8750653490
25   

C        0.0996702641   -0.8761687888    0.7511846458
C        1.2213561849   -0.3218557174    2.7609736049
C       -0.3999597066   -2.0086516709    1.3924197384
C        0.9256943321    0.0121473110    1.4410200236
C        0.6867536679   -1.4808236213    3.3307475417
C        1.5266111330    1.2178166999    0.7911165458
C        3.8713531535    3.2486356156    1.0126210039
C        1.9345341388   -1.2390346384    5.5002674849
C        2.3601021019    3.4029715768    1.1550619317
N       -0.1120604718   -2.3057460887    2.6665228531
N        0.9475284559   -1.8771946912    4.6209407272
O        1.6811454686    1.2744401180   -0.4252507151
O        1.7815435498    2.2016743472    1.6846133256
H       -0.1533677805   -0.6918516980   -0.2861718998
H        1.8679926824    0.3132854409    3.3488671587
H       -1.0432805836   -2.6801085181    0.8356132788
H        4.3178617594    3.0083527038    1.9821331107
H        4.1091637523    2.4514051942    0.3017216942
H        4.3074257761    4.1823331600    0.6457529679
H        2.9134568182   -1.1974617584    5.0110831316
H        2.0399617639   -1.8191554455    6.4225587361
H        1.6131639566   -0.2266543039    5.7659257383
H        1.9190599593    3.6608059623    0.1856502862
H        2.1465165134    4.2289922944    1.8406466318
H        0.4929376117   -2.7523108202    4.8571045746
25   

C        0.1840417344   -0.9004577427    0.7300067339
C        1.1930840094   -0.3049847980    2.7862085373
C       -0.2740505147   -2.0666841532    1.3404067872
C        0.9360440605    0.0249057155    1.4567222080
C        0.7042520506   -1.4993523628    3.3237165000
C        1.4674248711    1.2804174288    0.8405157902
C        3.9019924376    3.2224371267    0.8634517324
C        1.8449791026   -1.2102395082    5.5461853547
C        2.4412607011    3.3950780406    1.2686288885
N       -0.0180694869   -2.3618519628    2.6212925546
N        0.9331516537   -1.8934624845    4.6207092359
O        1.4447100572    1.4499719847   -0.3752264288
O        1.9096351660    2.1599118889    1.7689637425
H       -0.0468831173   -0.7177228032   -0.3128769655
H        1.7742434753    0.3554332955    3.4130208549
H       -0.8584344521   -2.7657702301    0.7534397634
H        4.4907572792    2.8753017580    1.7177892215
H        3.9899749708    2.4962288503    0.0496042536
H        4.3081218051    4.1786183293    0.5209148204
H        2.8398594884   -1.1098117035    5.0995993369
H        1.9433483957   -1.7925685471    6.4678600342
H        1.4568190666   -0.2198229954    5.8053717432
H        1.8587488596    3.7596016141    0.4150479374
H        2.3742817379    4.1522213378    2.0561505133
H        0.5191814079   -2.7950492699    4.8305067228
25   

C       -0.2165355199   -0.1450523935    1.1671078263
C        1.6037171909   -0.9779460576    2.4288019946
C       -1.0725457399   -0.6644295352    2.1364777531
C        1.1663382290   -0.2939569980    1.2958189243
C        0.6809504529   -1.4630802925    3.3603947242
C        2.1228154593    0.2448069853    0.2788622929
C        4.7248570844    1.9348507276   -0.0428114450
C        2.4251309926   -2.2690242745    4.9830513655
C        4.4007575039    0.4708909060   -0.3241103676
N       -0.6293717633   -1.3147499781    3.2197488014
N        1.0438404520   -2.1312369980    4.5057535627
O        1.7210500517    0.8448500405   -0.7141556909
O        3.4125524201   -0.0123886527    0.5971802610
H       -0.6329992893    0.3739709369    0.3117972858
H        2.6571957809   -1.1409014910    2.6026438805
H       -2.1411791206   -0.5352736855    2.0095908626
H        3.8371901745    2.5579823840   -0.1882735589
H        5.0786443603    2.0507689697    0.9859766490
H        5.5068885215    2.2799065274   -0.7254104663
H        2.9026953303   -1.2867449011    5.0628275534
H        3.0034616367   -2.9048175317    4.3047655912
H        2.4305744446   -2.7313495072    5.9752653925
H        5.3107931089   -0.1263544542   -0.2097903690
H        4.0639253365    0.3569647046   -1.3606515974
H        0.2438689101   -2.3944706016    5.0705496917
25   

C       -0.2422358071   -0.2203976728    1.1243820195
C        1.6037034535   -0.9329982818    2.4227966294
C       -1.0812659787   -0.7914989131    2.0795572367
C        1.1442244831   -0.2867055744    1.2766654845
C        0.6966879118   -1.4741068750    3.3387397450
C        2.0854181185    0.3288016418    0.2899209015
C        4.8122252252    1.8146571952    0.0504852506
C        2.4582189686   -2.1555865108    4.9990816094
C        4.3351833013    0.4497369778   -0.4364514120
N       -0.6176372458   -1.4114014468    3.1723040579
N        1.0801138826   -2.1100906840    4.4956305095
O        1.6814436140    1.0949088238   -0.5802351278
O        3.3595006478   -0.0920785284    0.4652459360
H       -0.6738257596    0.2762315867    0.2633277648
H        2.6627656002   -1.0195218282    2.6169433454
H       -2.1534811449   -0.7281659110    1.9342967601
H        3.9808825513    2.5259731708    0.0696025635
H        5.2328939406    1.7289973551    1.0568363322
H        5.5837594265    2.2003700587   -0.6222077245
H        2.8697049689   -1.1440361720    5.0812750471
H        3.0890246463   -2.7561536717    4.3356279270
H        2.4749518093   -2.6112599730    5.9942445139
H        5.1891853987   -0.2332106796   -0.4834228555
H        3.9308301766    0.5369334487   -1.4511886491
H        0.2883032685   -2.4214266488    5.0473114380
25   

C       -0.2565970224   -0.2887296822    1.0772238878
C        1.5968584167   -0.8835585500    2.4247445353
C       -1.0818244088   -0.9130517154    2.0113244024
C        1.1261735148   -0.2730978143    1.2641520783
C        0.7033469801   -1.4821365335    3.3174974402
C        2.0555403988    0.4204452873    0.3194364472
C        4.8863829501    1.6903010412    0.1066736924
C        2.4622116379   -2.0450771707    5.0239061928
C        4.2563365731    0.4658163298   -0.5503325301
N       -0.6076446169   -1.5042512825    3.1159243483
N        1.0970246964   -2.0891737275    4.4863592679
O        1.6649801703    1.3332147904   -0.4023270289
O        3.2908826578   -0.1320214487    0.3264492013
H       -0.6947601650    0.1875212214    0.2081401900
H        2.6553792855   -0.8941088503    2.6405736764
H       -2.1520937567   -0.9152673611    1.8402449709
H        4.1272459010    2.4548822452    0.2980768622
H        5.3571514011    1.4087165811    1.0533247597
H        5.6485020782    2.1152832022   -0.5529525155
H        2.8061573454   -1.0090869724    5.1119059267
H        3.1463659849   -2.6059063871    4.3787936128
H        2.4831971673   -2.4959608041    6.0211721532
H        5.0387786683   -0.2684553130   -0.7661672992
H        3.8013411413    0.7487428222   -1.5062025017
H        0.3132094213   -2.4496967963    5.0191913591
25   

C       -0.2467561434   -0.3616911283    1.0403207759
C        1.5955274571   -0.8465957482    2.4477772817
C       -1.0606346406   -1.0444738082    1.9434167856
C        1.1245164764   -0.2642390156    1.2737204557
C        0.7133954409   -1.5072035306    3.3071543508
C        2.0434978861    0.5074387316    0.3801788917
C        4.9563330968    1.5598110226    0.1289585478
C        2.4444121359   -1.9547947194    5.0742919924
C        4.1695994231    0.5163257224   -0.6586026078
N       -0.5860534059   -1.6126825816    3.0603675930
N        1.1063904896   -2.0932386108    4.4868238958
O        1.6822517060    1.5477884820   -0.1610029885
O        3.2170185075   -0.1383438967    0.1910952182
H       -0.6842370917    0.0974816621    0.1619797685
H        2.6460239917   -0.7859326167    2.6928095183
H       -2.1226499677   -1.1121977727    1.7377964028
H        4.2875083011    2.3408562114    0.5033356458
H        5.4643973736    1.0877693906    0.9752031922
H        5.7064503690    2.0253215509   -0.5169242811
H        2.7137661641   -0.8975842045    5.1696594511
H        3.1885828089   -2.4694697750    4.4577976042
H        2.4587703142   -2.4003738734    6.0740614800
H        4.8625968144   -0.2329161055   -1.0540326109
H        3.6766510188    0.9897413562   -1.5151111608
H        0.3297835904   -2.5049526974    4.9924464134
25   

C       -0.2263018415   -0.4371333580    1.0142855735
C        1.5843951871   -0.8080383827    2.4970110842
C       -1.0283541040   -1.1828156507    1.8777545625
C        1.1230993140   -0.2501357501    1.3081342066
C        0.7145789702   -1.5356833432    3.3135748492
C        2.0296696126    0.5950169907    0.4669097161
C        4.9956240086    1.4483934715    0.1025669131
C        2.3944680308   -1.8741775031    5.1525322477
C        4.0514184925    0.6176709000   -0.7613088065
N       -0.5629842054   -1.7279845085    3.0102764759
N        1.0973780833   -2.1042970213    4.5050479573
O        1.7184759621    1.7353862490    0.1391682555
O        3.1182500865   -0.0962882479    0.0616781194
H       -0.6566513531    0.0008350986    0.1220049252
H        2.6174541524   -0.6759061513    2.7840043089
H       -2.0737590113   -1.3208508518    1.6271350714
H        4.4363308672    2.2038097355    0.6629441524
H        5.5279622350    0.8015982010    0.8063996013
H        5.7279583060    1.9573670164   -0.5308212417
H        2.5843301315   -0.8010165229    5.2604121272
H        3.1999989653   -2.3331728269    4.5701383840
H        2.3950293331   -2.3210772368    6.1518175539
H        4.6358287788   -0.1048350988   -1.3396190064
H        3.5333160948    1.2662383244   -1.4766060984
H        0.3298991208   -2.5714529625    4.9751984843
25   

C       -0.1719750486   -0.4912916855    0.9950863634
C        1.5738987443   -0.7582040912    2.5761807842
C       -0.9692319098   -1.2986051921    1.8063529176
C        1.1409319227   -0.2152010615    1.3706004875
C        0.7103095632   -1.5513344407    3.3363587352
C        2.0469643606    0.6835808577    0.5815031330
C        5.0414067134    1.3253261293    0.0344923471
C        2.3014361634   -1.7958943735    5.2665003707
C        3.9361587597    0.7405539043   -0.8396106845
N       -0.5328143349   -1.8239428150    2.9597104623
N        1.0641614690   -2.1095901870    4.5415992556
O        1.8398903836    1.8893541569    0.4972685938
O        3.0159077256   -0.0191290977   -0.0433951811
H       -0.5786371141   -0.0778908675    0.0805557196
H        2.5788841655   -0.5626070889    2.9205080287
H       -1.9866010356   -1.5050844423    1.4948131253
H        4.6214979810    2.0203515560    0.7679964637
H        5.5678302364    0.5235690876    0.5609531715
H        5.7588240722    1.8684064205   -0.5875571581
H        2.4103941509   -0.7130770920    5.3890424841
H        3.1698916695   -2.1944388716    4.7320092820
H        2.2731433686   -2.2489358745    6.2626145106
H        4.3829144595    0.0791973687   -1.5886286637
H        3.4228701525    1.5448846820   -1.3784521305
H        0.3039318040   -2.6309147974    4.9641646897
25   

C       -0.0790563477   -0.5503171226    0.9641135006
C        1.5730880981   -0.7082871741    2.6583183946
C       -0.8699694002   -1.4172289716    1.7184248343
C        1.1784032318   -0.1785902047    1.4342456214
C        0.7183616755   -1.5652970796    3.3564814567
C        2.0927780181    0.7569022311    0.6967483108
C        5.0819674202    1.1859797450   -0.0732448319
C        2.1960779113   -1.7222172436    5.3831111725
C        3.8352677145    0.8762054418   -0.8960675303
N       -0.4761769962   -1.9183926320    2.8976955968
N        1.0324325142   -2.1123875210    4.5777654054
O        2.0508304949    1.9700487124    0.8701982353
O        2.9135645128    0.0826175792   -0.1352794962
H       -0.4475237216   -0.1692972909    0.0200212560
H        2.5393152459   -0.4500842331    3.0665224165
H       -1.8456144098   -1.6953710861    1.3370065766
H        4.8208155842    1.7792806785    0.8082938316
H        5.5598821366    0.2561255944    0.2492715567
H        5.7932758492    1.7564798787   -0.6775335525
H        2.2219177045   -0.6358254825    5.5190689839
H        3.1224718373   -2.0545454850    4.9034286365
H        2.1355163461   -2.1867472141    6.3724665226
H        4.1259013517    0.3167759365   -1.7908290258
H        3.3695013563    1.8097440434   -1.2313356536
H        0.2840804316   -2.6880685523    4.9476034462
25   

C       -0.1916891523    0.4776522955    1.9952074899
C        1.5950536691   -0.5203387440    3.1958135702
C       -0.9808989945   -0.6161622213    2.3511087386
C        1.1296548116    0.5444761474    2.4313202580
C        0.7421262723   -1.5840772001    3.5020327739
C        2.0642035502    1.6652146493    2.0816458433
C        2.5879676563    3.8704184582   -0.0467242709
C        2.5119689569   -2.9334698640    4.6712718309
C        3.3551881300    2.6098441327    0.3406594911
N       -0.5205182522   -1.6322318074    3.0943560987
N        1.1324107486   -2.6751351441    4.2414897910
O        2.4469707549    2.4727225725    2.9214835314
O        2.4514899346    1.5905213845    0.7904744583
H       -0.6101089926    1.2678482430    1.3847868841
H        2.6149124342   -0.5169061554    3.5525531587
H       -2.0089575387   -0.6484435701    2.0093831974
H        1.8570299814    3.6403714210   -0.8277027301
H        2.0660280365    4.2827881761    0.8221644714
H        3.2820756092    4.6261388335   -0.4257506382
H        3.1864669600   -2.9405912662    3.8085511489
H        2.5720115660   -3.9120116933    5.1582279946
H        2.8395595607   -2.1730332465    5.3876744436
H        4.0978470537    2.8479488503    1.1104033851
H        3.8987434406    2.2377234591   -0.5334524122
H        0.3886895489   -3.3544825606    4.3572823395
25   

C       -0.1111953604    0.4084036701    1.8778489987
C        1.6169818908   -0.5496494558    3.1933458803
C       -0.9240207164   -0.6627530878    2.2492761493
C        1.1903809309    0.4867981722    2.3689902084
C        0.7426895616   -1.5923722524    3.5105876719
C        2.1632637171    1.5647232543    1.9994691637
C        2.5815877285    3.9770383275    0.0847430850
C        2.4550547220   -2.9060304130    4.7990633940
C        3.2614303256    2.6150122158    0.1870972062
N       -0.5035461273   -1.6478799768    3.0554571391
N        1.0943881298   -2.6548375630    4.3087362356
O        2.7714178098    2.2049293875    2.8511754436
O        2.3353237666    1.6271883076    0.6609239646
H       -0.4944314570    1.1703801851    1.2109184777
H        2.6231149830   -0.5394622644    3.5878597161
H       -1.9368486153   -0.7040715983    1.8656229420
H        1.7171490776    3.9163630762   -0.5832380149
H        2.2488409218    4.3135687235    1.0714070769
H        3.2841691299    4.7140643870   -0.3149126833
H        3.1607926742   -2.9516223157    3.9628937888
H        2.4889526630   -3.8651971811    5.3254737711
H        2.7626655959   -2.1203971424    5.4969046850
H        4.1366812563    2.6840725004    0.8427451453
H        3.6184707619    2.3166176457   -0.8035972176
H        0.3413631350   -3.3240992331    4.4226917411
25   

C       -0.0554155382    0.3215729296    1.7613456237
C        1.6311893514   -0.5846201496    3.1663688020
C       -0.8890218267   -0.7197542219    2.1694045895
C        1.2362900203    0.4113282767    2.2778993148
C        0.7371640037   -1.5994190845    3.5170930011
C        2.2366573867    1.4520709803    1.8829800443
C        2.5848907904    4.0588594575    0.2269717669
C        2.4034678421   -2.8610473903    4.9131230173
C        3.1463924107    2.6503719338    0.0571420173
N       -0.4988892678   -1.6652677447    3.0360570183
N        1.0574932466   -2.6221763279    4.3778992487
O        3.0168924556    1.9369499126    2.6971445727
O        2.2153311514    1.6766181279    0.5502564483
H       -0.4149854894    1.0511163743    1.0464602238
H        2.6280935088   -0.5665136187    3.5840394744
H       -1.8932014971   -0.7705681598    1.7647338815
H        1.6291425001    4.1484051073   -0.2980392631
H        2.4336589006    4.2852355601    1.2868663751
H        3.2843458366    4.7903999069   -0.1879449553
H        3.1279668537   -2.9580118704    4.0976218473
H        2.4141307097   -3.7912679452    5.4900290783
H        2.7038231432   -2.0427184916    5.5756687016
H        4.1116896727    2.5700476449    0.5694539096
H        3.3244830054    2.4607071893   -1.0060098882
H        0.2945689354   -3.2769875303    4.5084237710
25   

C       -0.0131343540    0.2326665254    1.6523155526
C        1.6473094957   -0.6079978665    3.1289485267
C       -0.8614897985   -0.7766131999    2.1074038472
C        1.2752272714    0.3374285869    2.1769973632
C        0.7387997034   -1.5931709187    3.5240697745
C        2.2928626729    1.3492863493    1.7544323251
C        2.6183536884    4.1246363624    0.3855717472
C        2.3739513385   -2.7885813378    5.0121133741
C        3.0333377540    2.7164451239   -0.0299076603
N       -0.4912685368   -1.6754506537    3.0304777048
N        1.0371821717   -2.5675268943    4.4467670837
O        3.2076220716    1.6910284300    2.4992509868
O        2.1031844690    1.7486963904    0.4769495955
H       -0.3610654533    0.9256476769    0.8963173776
H        2.6375908613   -0.5785966638    3.5617656666
H       -1.8615420505   -0.8402539128    1.6944083591
H        1.6097235942    4.3421669688    0.0216675972
H        2.6344215960    4.2223918843    1.4753683445
H        3.3113919180    4.8567767757   -0.0389496378
H        3.1081055859   -2.9356619022    4.2128947171
H        2.3686464125   -3.6862548231    5.6385194825
H        2.6732726809   -1.9381202728    5.6333857024
H        4.0505184853    2.5092649003    0.3210347462
H        3.0463506539    2.6538574183   -1.1225586898
H        0.2666828298   -3.2077167241    4.6026615967
25   

C        0.0079488910    0.1322064763    1.5457554694
C        1.6517749399   -0.6378501857    3.0786437968
C       -0.8513065516   -0.8437419429    2.0501092957
C        1.2967201392    0.2531015914    2.0689075051
C        0.7322680396   -1.5920592206    3.5215167766
C        2.3240808932    1.2414399867    1.6137058883
C        2.6697267449    4.1512839785    0.5571097052
C        2.3446274665   -2.7108660751    5.0920683667
C        2.9106862687    2.7865937666   -0.0810909623
N       -0.4945390533   -1.6929817085    3.0237386276
N        1.0148353483   -2.5135129498    4.5018493945
O        3.3513436862    1.4436924044    2.2565458792
O        1.9878642539    1.8184027493    0.4385311760
H       -0.3350666565    0.7865121399    0.7538618541
H        2.6373285200   -0.5952209758    3.5210110392
H       -1.8497067954   -0.9213322006    1.6354997002
H        1.6402468478    4.4745281001    0.3761506249
H        2.8459010789    4.1055791634    1.6361428777
H        3.3517680778    4.8892384913    0.1249139373
H        3.0850364823   -2.9097312564    4.3100050675
H        2.3265286767   -3.5701854313    5.7699051105
H        2.6448404240   -1.8276948574    5.6654397968
H        3.9476339374    2.4748145911    0.0871476661
H        2.7657422517    2.8659673921   -1.1630580514
H        0.2382424840   -3.1383613523    4.6869158854
25   

C        0.0014647315    0.0232530355    1.4471723290
C        1.6331767285   -0.6590573192    3.0337092134
C       -0.8620722890   -0.9224976954    1.9993763184
C        1.2886617472    0.1698137672    1.9688291751
C        0.7095276738   -1.5862155984    3.5229892315
C        2.3164778368    1.1413422201    1.4788156812
C        2.7401601103    4.1390549735    0.7286299381
C        2.3081456311   -2.6137533511    5.1680694259
C        2.7782792625    2.8526384302   -0.0906054332
N       -0.5130962898   -1.7157039471    3.0217505031
N        0.9826265012   -2.4480324051    4.5587150388
O        3.4312454194    1.2111947048    1.9909388714
O        1.8634430729    1.8860432065    0.4460764992
H       -0.3383535825    0.6338910668    0.6198220306
H        2.6136319879   -0.5916102685    3.4841739247
H       -1.8578819857   -1.0221888040    1.5832612160
H        1.7247787225    4.5463129440    0.7420796785
H        3.0625322780    3.9477226968    1.7566642862
H        3.4115372292    4.8809485620    0.2865761960
H        3.0537016568   -2.8562327938    4.4033844176
H        2.2842891582   -3.4341824834    5.8923201808
H        2.6055670063   -1.7004760362    5.6937467493
H        3.8002506139    2.4580222410   -0.1163859811
H        2.4892494283    3.0759388330   -1.1223791800
H        0.2046076507   -3.0621324407    4.7716543747
