60

C      8.87910    0.01548   -7.42773
C      7.51030   -1.08490   -5.69997
C      6.96519    1.17728   -6.39954
C      6.44367   -1.05813   -4.80689
C      5.90137    1.19060   -5.50286
C      4.15128    1.27079   -3.03595
C      3.71515   -1.05317   -3.50073
C      3.08786    1.28971   -2.13664
C      2.65462   -1.03486   -2.59734
C      2.12401   -1.65268    0.40921
C     -0.36699   -2.46584    1.30460
C      7.77958    0.03605   -6.50473
C      5.61894    0.07667   -4.68971
C      4.48637    0.09853   -3.73726
C      2.31937    0.13849   -1.90180
C      0.97934   -0.96440   -0.03779
C     -0.28433   -1.38887    0.41823
C      2.03481   -2.72882    1.28638
C      0.77021   -3.14122    1.74966
C      1.15266    0.17985   -0.96624
C     -1.15390    2.93416   -0.77691
C     -1.51667   -0.61912    0.03868
C     -1.45462    0.84798    0.51090
C     -0.97273    1.01740    1.95459
C     -0.89867    4.87654   -2.23995
C      3.38188   -4.67013    1.18326
C      1.16117   -4.02276    3.91827
N      9.77204   -0.00130   -8.17720
N      0.45105    1.26466   -1.10403
N     -0.65060    1.65128   -0.42926
N     -0.41713    3.61723   -1.69571
O     -2.17280    3.37316   -0.24192
O      3.19541   -3.34548    1.70989
O      0.61745   -4.21352    2.59884
H      8.14464   -1.96304   -5.77312
H      7.16607    2.03987   -7.02759
H      6.26415   -1.91909   -4.16987
H      5.26254    2.06726   -5.45163
H      4.75382    2.16578   -3.16566
H      3.92447   -1.96431   -4.05458
H      2.85552    2.19723   -1.58725
H      2.06740   -1.93567   -2.44380
H      3.11447   -1.35350    0.08377
H     -1.33231   -2.79604    1.67934
H     -1.67190   -0.62904   -1.04622
H     -2.39594   -1.08383    0.49313
H     -2.45536    1.27425    0.43726
H      0.06845    0.70765    2.07534
H     -1.58734    0.41100    2.62930
H     -1.06530    2.06524    2.25134
H     -1.64614    4.72934   -3.03010
H     -0.05225    5.43315   -2.65053
H     -1.35715    5.46194   -1.44159
H      4.32727   -5.03049    1.59329
H      3.44550   -4.63844    0.08859
H      2.56656   -5.33497    1.48543
H      0.95177   -4.94353    4.46560
H      0.66337   -3.18030    4.41308
H      2.23938   -3.84429    3.88138
H      0.31339    3.09544   -2.16261
