65

C     -4.21644   -7.57682    5.98631
C     -2.26199   -7.56165    4.53015
C     -1.08974   -6.97778    4.05562
C     -1.38178   -5.14125    5.61370
C     -3.00884   -6.93852    5.54093
C     -2.55527   -5.71796    6.08463
C     -0.65666   -5.76605    4.59410
C      1.76408   -5.87481    4.08556
C      0.69675   -3.85615    3.65083
C      0.29628    3.41944    0.20076
C      2.26215    1.95487    0.28507
C      0.24705    1.23428    1.46701
C      3.09208    1.54223    1.49727
C      1.11456    0.82845    2.65824
C      2.80971   -4.89713    3.55022
C      3.37199   -5.44144    2.22646
C      3.91642   -4.69657    4.59502
C     -3.18318    5.18627    0.39816
C     -1.15992    3.66632    0.59608
C     -1.72081    4.95960    0.00052
C      2.78747   -1.37924    3.89967
C      2.54246   -2.43579    2.81621
C      3.29106   -0.06030    3.30157
C     -3.33380   -5.03524    7.18762
N     -5.18786   -8.12877    6.31416
N      0.55471   -5.18462    4.12735
N      2.00224   -3.68499    3.34887
N      0.89803    2.28379    0.69041
N      2.45235    0.43328    2.20974
O      1.95026   -7.03214    4.40703
O      0.90677    4.21189   -0.52063
F     -2.73210   -3.89252    7.59113
F     -4.58445   -4.71095    6.78754
F     -3.45319   -5.83060    8.27691
S     -0.54276   -2.76352    3.47564
H     -2.61051   -8.50231    4.11706
H     -0.51288   -7.46287    3.27638
H     -1.03156   -4.20669    6.03129
H      2.68996    2.82961   -0.20352
H      2.23841    1.12621   -0.43684
H      0.08034    0.35163    0.83306
H     -0.72119    1.57273    1.83096
H      4.08174    1.21788    1.15768
H      3.23319    2.41932    2.15704
H      1.16701    1.67017    3.37609
H      0.63129   -0.01522    3.15617
H      4.15378   -4.78396    1.83674
H      2.58277   -5.52966    1.47445
H      3.80536   -6.42935    2.40008
H      4.67451   -4.00408    4.21811
H      4.39403   -5.65671    4.80504
H      3.50818   -4.29651    5.52705
H     -3.29676    5.25697    1.48664
H     -3.82446    4.36679    0.05196
H     -3.56942    6.11454   -0.03582
H     -1.23889    3.69714    1.69052
H     -1.77117    2.81332    0.27390
H     -1.62491    4.92363   -1.08887
H     -1.10364    5.80228    0.32654
H      3.53265   -1.74018    4.61675
H      1.86160   -1.22716    4.46004
H      1.84682   -2.04723    2.07139
H      3.47497   -2.67126    2.29685
H      4.29691   -0.21574    2.89218
H      3.39262    0.68604    4.11250
