24   

C       -4.2534866986   -1.0923284373    5.2354966186
C       -4.4072107160   -0.5769577122    3.9335684126
C       -2.0772038398   -1.5831364152    4.7813877183
C       -2.2078640768   -1.0693933529    3.4642388707
C       -1.1513787710   -0.5771747403    1.2116694518
C       -0.0365808365   -0.5511808993    0.4173173485
C       -1.0318912658   -1.0975458541    2.5615122465
C       -0.9538949301    0.9615108829   -1.2966362156
C        1.3946553434    0.0113500604   -1.4857979454
N       -3.0894708499   -1.6007624853    5.6753550146
N       -3.4001027164   -0.5586914801    3.0426386543
N        0.1311845658    0.1350126058   -0.7389896955
O        0.0352575467   -1.5613237258    2.9578161320
H       -5.1062369496   -1.0767189756    5.9038372949
H       -5.3716286682   -0.1805678971    3.6384552606
H       -1.1226703250   -1.9852389425    5.1009307464
H       -2.0825222802   -0.1364654403    0.8856938066
H        0.8383900229   -1.0822088462    0.7849704813
H       -1.3010482292    1.6871233176   -0.5541549996
H       -1.7912520296    0.3274427054   -1.6055175157
H       -0.6035283432    1.5170445667   -2.1722552014
H        1.2649110619   -0.6738840170   -2.3298094794
H        2.1931996452   -0.3740855507   -0.8437878133
H        1.7117625854    0.9887514364   -1.8626121852
24   

C       -4.2321306442   -1.0184014176    5.2397912382
C       -4.4227833222   -0.6467572770    3.8945269223
C       -2.0484021228   -1.4872749222    4.7980481943
C       -2.2158691777   -1.1168178969    3.4377707499
C       -1.2022955628   -0.8069492570    1.1327491529
C       -0.0831200804   -0.7225167118    0.3445910135
C       -1.0511098473   -1.1927808280    2.5234116666
C       -0.9490054612    0.9947632511   -1.1926186745
C        1.3969193546    0.0508674411   -1.4444757773
N       -3.0456724170   -1.4429193024    5.7078433652
N       -3.4306695941   -0.6903547641    2.9878307408
N        0.1175053245    0.0964684538   -0.7163210281
O        0.0386582663   -1.5742498705    2.9448381220
H       -5.0741993549   -0.9582424168    5.9190582510
H       -5.4038796424   -0.3125549749    3.5781487433
H       -1.0758801764   -1.8224404008    5.1397949073
H       -2.1488443650   -0.4115996480    0.7929373670
H        0.7925923704   -1.2637230648    0.6955714622
H       -1.3280938438    1.6081129497   -0.3689514948
H       -1.7709779151    0.4115790403   -1.6201912932
H       -0.5674758338    1.6691424055   -1.9657358893
H        1.2836683768   -0.5341238077   -2.3630246691
H        2.1796439350   -0.4090698366   -0.8327747670
H        1.7255017123    1.0625942736   -1.7018600603
24   

C       -4.1910169630   -0.9196952890    5.2363422011
C       -4.4144875396   -0.6940153285    3.8640377417
C       -1.9946490647   -1.3391589976    4.8070351542
C       -2.1950694494   -1.1149880183    3.4196197539
C       -1.2221540780   -0.9951239950    1.0789230888
C       -0.1104440819   -0.8616522626    0.2803462004
C       -1.0389014641   -1.2300990674    2.4984524936
C       -0.9410768327    1.0288673235   -1.0562647083
C        1.3948266610    0.0869947092   -1.4009067781
N       -2.9815013842   -1.2450868371    5.7244561223
N       -3.4328839798   -0.7875215835    2.9497747421
N        0.1101841978    0.0671360986   -0.6809429263
O        0.0735508683   -1.5155440749    2.9360017552
H       -5.0262731339   -0.8260885964    5.9202237093
H       -5.4128723696   -0.4341715887    3.5322717926
H       -1.0041239789   -1.5966846110    5.1640359965
H       -2.1866164103   -0.6548085816    0.7295935821
H        0.7678852503   -1.4147012604    0.6056383033
H       -1.3372748697    1.5289731213   -0.1667138141
H       -1.7552452455    0.5141552855   -1.5765417751
H       -0.5383957856    1.7985806066   -1.7221752171
H        1.2829670368   -0.3940982821   -2.3780583040
H        2.1680901735   -0.4446665536   -0.8372173494
H        1.7354045635    1.1169993998   -1.5453457310
24   

C       -4.1565174060   -0.8107502800    5.2137467073
C       -4.4050936270   -0.7370208750    3.8292908050
C       -1.9466885160   -1.1666163846    4.7953983390
C       -2.1723505575   -1.0950275797    3.3957702889
C       -1.2278250986   -1.1769450052    1.0417766891
C       -0.1363085179   -1.0005074660    0.2132370898
C       -1.0210837146   -1.2459163426    2.4735240764
C       -0.9492253329    1.0298550283   -0.9038771380
C        1.3673009404    0.0944770856   -1.3771480191
N       -2.9274536918   -1.0268310215    5.7136069619
N       -3.4297173665   -0.8768527691    2.9143485834
N        0.0891567358    0.0159717419   -0.6496483034
O        0.1106332471   -1.4231202687    2.9183076146
H       -4.9881930300   -0.6875023688    5.8972955950
H       -5.4182352084   -0.5593629043    3.4881604733
H       -0.9410064360   -1.3390961762    5.1611107948
H       -2.2125005276   -0.9076098952    0.6865581736
H        0.7473755746   -1.5660502404    0.5001517088
H       -1.3437892107    1.4193153546    0.0400976114
H       -1.7671956919    0.5945088378   -1.4867933276
H       -0.5342390288    1.8725377583   -1.4657691357
H        1.2361292932   -0.2660324710   -2.4026233027
H        2.1343434296   -0.5154583372   -0.8893479589
H        1.7283595508    1.1272868841   -1.4035318704
24   

C       -4.1297902330   -0.7227602123    5.1689835358
C       -4.3949976034   -0.8061026889    3.7882351370
C       -1.9052629779   -0.9787909902    4.7545426110
C       -2.1476230894   -1.0648386207    3.3586285624
C       -1.2183900738   -1.3388691455    1.0146078211
C       -0.1552188538   -1.1293624677    0.1424300428
C       -0.9971777362   -1.2357045441    2.4386459039
C       -0.9374288150    1.0226746200   -0.7295731494
C        1.3308246625    0.0748106961   -1.3800926426
N       -2.8848433921   -0.8085792336    5.6689699698
N       -3.4208425397   -0.9767202141    2.8773251981
N        0.0728800027   -0.0445770503   -0.6234618472
O        0.1485306534   -1.2881103726    2.8791933613
H       -4.9616155004   -0.5834425064    5.8492571751
H       -5.4203952215   -0.7279337981    3.4463765494
H       -0.8873096334   -1.0498053761    5.1200530530
H       -2.2231962061   -1.1606151815    0.6580859227
H        0.7282629667   -1.7216795032    0.3685995875
H       -1.2950407644    1.3128656397    0.2636176902
H       -1.7840468424    0.6826133840   -1.3344457969
H       -0.5084662455    1.9118262687   -1.2022937422
H        1.1547139484   -0.1552781439   -2.4359302596
H        2.0876418924   -0.6163612270   -0.9956327072
H        1.7313546752    1.0898338000   -1.2960149326
24   

C       -4.1395051045   -0.9098356318    5.3196754129
C       -4.4542212706   -1.3095138137    4.0062842282
C       -2.1238813403   -0.1347671721    4.5978001099
C       -2.4161992447   -0.5334040807    3.2668630998
C       -1.6524061687   -0.7380593230    0.8556710597
C       -0.5977991070   -0.9828354996   -0.0419927085
C       -1.3905066287   -0.3283084912    2.2149040421
C       -0.2485671203    1.3597665008   -0.6109751127
C        0.9706258000   -0.4926869128   -1.8446787236
N       -2.9749583944   -0.3150309739    5.6310852226
N       -3.6098839766   -1.1256948492    2.9760118315
N       -0.0331895475   -0.0787168568   -0.8505829540
O       -0.2998973838    0.1556793388    2.5055157860
H       -4.8638019337   -1.0914809121    6.1048561232
H       -5.4090267648   -1.7866519374    3.8190608227
H       -1.1700910241    0.3330505258    4.8130353673
H       -2.5796717018   -1.2676207501    0.6869931911
H       -0.4874055134   -2.0190437533   -0.3480379728
H       -1.3169205135    1.5780483520   -0.5153262263
H        0.1383327726    1.9494736323   -1.4478194938
H        0.2669437872    1.6728721930    0.3027225973
H        0.7436452822   -0.0477643918   -2.8185401666
H        0.9815273087   -1.5806864382   -1.9642055177
H        1.9677121366   -0.1719612481   -1.5257723321
24   

C       -4.0863891751   -0.8308552976    5.3035149581
C       -4.4016690710   -1.3390951890    4.0283424402
C       -2.1120461568   -0.0356857519    4.4952340559
C       -2.4053768703   -0.5424654444    3.2014549426
C       -1.6704110245   -0.8971669345    0.8017764989
C       -0.6427459250   -1.0746836508   -0.1276012808
C       -1.4059907922   -0.3667819504    2.1185802547
C       -0.2830108269    1.3211274159   -0.5257096005
C        0.9838824948   -0.4431902047   -1.8308165873
N       -2.9418906722   -0.1714179879    5.5522652478
N       -3.5779937660   -1.2012801214    2.9743719636
N       -0.0356841461   -0.1021281923   -0.8251401556
O       -0.3404361020    0.1935398507    2.3611015742
H       -4.7935273421   -0.9797077283    6.1109189754
H       -5.3401776174   -1.8633349902    3.8915551905
H       -1.1754154058    0.4839892378    4.6612742636
H       -2.5508085103   -1.5165085508    0.7008858222
H       -0.5773037519   -2.0691777633   -0.5591449665
H       -1.3431274684    1.4969593634   -0.3178399477
H       -0.0086678106    1.9437450628   -1.3828493679
H        0.3118797173    1.6376836633    0.3367068791
H        0.8045663307    0.1125049991   -2.7565104513
H        0.9610461295   -1.5112870108   -2.0690288719
H        1.9804197044   -0.1962242612   -1.4504119488
24   

C       -4.0703854854   -0.7897552952    5.2711227931
C       -4.3644159027   -1.3798534121    4.0265457266
C       -2.1193421767    0.0206856070    4.4225996837
C       -2.3916740768   -0.5674421603    3.1587218608
C       -1.6434146842   -1.0349694144    0.7869596276
C       -0.6717114441   -1.1362251631   -0.2011565663
C       -1.3992329374   -0.4120430837    2.0656800810
C       -0.3063985019    1.2885270197   -0.4852148134
C        0.9922380186   -0.4174767720   -1.8290492859
N       -2.9481042785   -0.0816115519    5.4842482056
N       -3.5414211490   -1.2765576145    2.9681212240
N       -0.0237050764   -0.1245103156   -0.8044243313
O       -0.3601641060    0.2054860683    2.2814049900
H       -4.7760201724   -0.9137961519    6.0840155227
H       -5.2859396863   -1.9395724325    3.9177758960
H       -1.2012051618    0.5799613204    4.5609070592
H       -2.4818573759   -1.7153178060    0.7310846223
H       -0.6436281927   -2.0894046710   -0.7209866309
H       -1.3510377926    1.4228880024   -0.1879887637
H       -0.1335797933    1.9183315276   -1.3632358417
H        0.3462112498    1.6343162542    0.3224534596
H        0.8390807984    0.2146041666   -2.7093541399
H        0.9374261656   -1.4618584340   -2.1521107629
H        1.9928734709   -0.2333097484   -1.4246663331
24   

C       -4.0643885753   -0.7849829503    5.2646534719
C       -4.3173483777   -1.4485456774    4.0484276046
C       -2.1369537841    0.0621134161    4.3981845220
C       -2.3688228222   -0.5980747908    3.1619400273
C       -1.5839466990   -1.1410987087    0.8205544347
C       -0.6917623998   -1.1569314940   -0.2359213362
C       -1.3770794820   -0.4434855110    2.0676102065
C       -0.3212536463    1.2827330771   -0.4374753257
C        0.9796611951   -0.3796690855   -1.8267963456
N       -2.9744203446   -0.0219835135    5.4546132519
N       -3.4852383585   -1.3644744736    2.9954761738
N       -0.0133507653   -0.1221979762   -0.7701481082
O       -0.3744174373    0.2367586160    2.2640299736
H       -4.7759437638   -0.8959909075    6.0742610184
H       -5.2144286391   -2.0495998844    3.9573228702
H       -1.2457255022    0.6672772513    4.5180322601
H       -2.3751073378   -1.8778104824    0.8005267793
H       -0.6996476543   -2.0718372129   -0.8211708331
H       -1.3525599891    1.3873928097   -0.0868133274
H       -0.2127970599    1.9162985483   -1.3229861962
H        0.3619473101    1.6491580538    0.3351107434
H        0.8488980838    0.3238401995   -2.6550315663
H        0.8747764165   -1.3921304966   -2.2293338395
H        1.9908764780   -0.2710593352   -1.4215109769
24   

C       -4.0803565818   -0.7796117123    5.2844749335
C       -4.2724934636   -1.5101069180    4.0958525430
C       -2.1776774385    0.1225981580    4.4189111155
C       -2.3492543789   -0.6030278900    3.2096374070
C       -1.4985354885   -1.1997773682    0.9056888591
C       -0.6867210470   -1.1501980025   -0.2079793935
C       -1.3497780076   -0.4371435998    2.1234417667
C       -0.2497336851    1.2842115471   -0.3635485139
C        0.9918297075   -0.3811867742   -1.7937829017
N       -3.0333029013    0.0441859210    5.4611553461
N       -3.4217361678   -1.4327340667    3.0574219326
N        0.0381600647   -0.1236503713   -0.7009454782
O       -0.3944272627    0.3105050287    2.3072300164
H       -4.8046912497   -0.8878443742    6.0830491658
H       -5.1373490090   -2.1579216211    4.0141218880
H       -1.3216696649    0.7784879390    4.5280464664
H       -2.2439860484   -1.9829697483    0.9121912252
H       -0.7388807128   -2.0377588727   -0.8318715097
H       -1.2720297182    1.3979763889    0.0099300897
H       -0.1559316372    1.9163245465   -1.2517514264
H        0.4548538085    1.6456565289    0.3920691685
H        0.8280628730    0.3193391853   -2.6187517860
H        0.8769302082   -1.3953307906   -2.1893558325
H        2.0171511602   -0.2688969573   -1.4269520405
24   

C       -4.1095595747   -0.8449938812    5.2761572127
C       -4.2333895773   -1.6261373144    4.1109551827
C       -2.2482657069    0.1418642164    4.4130660751
C       -2.3522306419   -0.6326165205    3.2263932344
C       -1.4375818495   -1.2360624583    0.9483084519
C       -0.7074214669   -1.1301505869   -0.2149245612
C       -1.3507522965   -0.4327926589    2.1469945195
C       -0.1226652556    1.2774684161   -0.3200818698
C        0.9586015501   -0.4134262914   -1.8363406412
N       -3.1175707260    0.0462553430    5.4424780795
N       -3.3686628041   -1.5321334715    3.0855171021
N        0.0783114649   -0.1372382502   -0.6875251050
O       -0.4527365234    0.3838370261    2.3215891862
H       -4.8424195976   -0.9690854001    6.0645820672
H       -5.0560878988   -2.3275279281    4.0365482412
H       -1.4375536343    0.8542368273    4.5135600792
H       -2.1425702561   -2.0555797456    0.9707089296
H       -0.8187711898   -1.9918035627   -0.8668599885
H       -1.1366343761    1.4446562534    0.0561365274
H        0.0088301741    1.9215902152   -1.1948324996
H        0.6049217919    1.5799128901    0.4396799724
H        0.7075098344    0.2418025632   -2.6765665772
H        0.8568978938   -1.4493624164   -2.1750780580
H        2.0031769343   -0.2498424749   -1.5527742843
24   

C       -4.1611188374   -1.0384144087    5.2441375534
C       -4.0862943070   -1.9025121908    4.1350925634
C       -2.6517525229    0.3524666381    4.2581057351
C       -2.5567551177   -0.5028450024    3.1272619906
C       -1.5270759145   -0.9974824839    0.8717003549
C       -0.7970772749   -0.9363281863   -0.3019619378
C       -1.6409912070   -0.1278209898    2.0157443199
C        0.3771968914    1.2555290091   -0.2985083410
C        0.6943085429   -0.4091397726   -2.1546134844
N       -3.4475949360    0.0978973545    5.3195775034
N       -3.2958658804   -1.6493280226    3.0774291618
N        0.0823792326   -0.0751386148   -0.8552301653
O       -0.9877372751    0.9032112060    2.1186673449
H       -4.8183912484   -1.3025644750    6.0640833476
H       -4.6863944909   -2.8048835634    4.1331144259
H       -2.0612705028    1.2608116813    4.2886895936
H       -2.1367271537   -1.8886463440    0.9241414759
H       -0.9811505995   -1.8191684731   -0.9074421831
H        0.9058825190    1.8693979044   -1.0338671946
H        1.0159554606    1.1666204891    0.5855125030
H       -0.5468032260    1.7858885559   -0.0541111825
H        0.5012346306    0.3888109437   -2.8789072289
H        0.2836801793   -1.3370236784   -2.5651103207
H        1.7754269963   -0.5353698406   -2.0388372286
24   

C       -4.0071928466   -0.9154339412    5.3367596840
C       -3.7829019717   -1.9202720771    4.3759253422
C       -2.9579244785    0.5962798910    3.9962462925
C       -2.7171073814   -0.3997292242    3.0119642181
C       -1.7574556139   -1.0296602556    0.7596176500
C       -1.0039566311   -0.9402337189   -0.3901528568
C       -1.9841780122   -0.0257730684    1.7746067114
C        0.7453562602    0.7198093490    0.1865139878
C        0.3726948711   -0.0397985889   -2.1824409200
N       -3.5994557554    0.3528046178    5.1597221614
N       -3.1444243514   -1.6793232902    3.2173016494
N       -0.0712110578   -0.0422867246   -0.7774563231
O       -1.6252787755    1.1381876047    1.6326191683
H       -4.5268943304   -1.1778128041    6.2506331056
H       -4.1359957822   -2.9247623440    4.5775241043
H       -2.6128018054    1.6090759593    3.8231479664
H       -2.2746427709   -1.9698635413    0.8924401432
H       -1.1832055470   -1.7591587553   -1.0808740891
H        1.7824671511    0.7822724174   -0.1568038373
H        0.7567565110    0.2293246176    1.1647416545
H        0.3579632025    1.7381554836    0.2913454619
H        0.1518611069    0.9293776344   -2.6409558577
H       -0.1388165588   -0.8145627606   -2.7623877499
H        1.4491273140   -0.2292623010   -2.2436665642
24   

C       -3.9778114977   -0.9011338249    5.3083368871
C       -3.6835408524   -1.9396015627    4.4036891085
C       -2.9951648044    0.5969879938    3.9036002301
C       -2.6862148119   -0.4327321933    2.9748610560
C       -1.6850483990   -1.1161754510    0.7567956178
C       -1.0075441760   -0.9746170104   -0.4359365312
C       -1.9688567400   -0.0803336883    1.7229003558
C        0.8101661259    0.5708104483    0.2341430790
C        0.3965138018   -0.0232578306   -2.1818588062
N       -3.6384139293    0.3773708113    5.0708562734
N       -3.0431080124   -1.7224342390    3.2414328335
N       -0.0246743276   -0.1127598080   -0.7730684033
O       -1.6759866321    1.0935563616    1.5188080772
H       -4.4963420529   -1.1452198455    6.2279261758
H       -3.9832800687   -2.9507511329    4.6527837218
H       -2.7067202798    1.6177226080    3.6805382065
H       -2.1602907671   -2.0737159256    0.9192769762
H       -1.2272216906   -1.7516352632   -1.1623714666
H        1.8552124764    0.5949291227   -0.0892239028
H        0.7786913024    0.0449515550    1.1933122783
H        0.4693645845    1.6014928315    0.3740893148
H        0.0951324210    0.9427324164   -2.5995837903
H       -0.0600616233   -0.8157934836   -2.7831830040
H        1.4831669564   -0.1256458026   -2.2644921166
24   

C       -3.9594288658   -0.8557568740    5.3282666585
C       -3.5979429263   -1.9146437476    4.4729259881
C       -3.0232055100    0.6301635654    3.8795388030
C       -2.6487686264   -0.4201075462    2.9993906647
C       -1.5889240426   -1.1393006235    0.8193245903
C       -1.0172925371   -0.9482983975   -0.4253713325
C       -1.9398225760   -0.0829904797    1.7389328737
C        0.8515542631    0.5268160255    0.2534598588
C        0.3847302817    0.0027481500   -2.1741569747
N       -3.6764700662    0.4270171994    5.0441972829
N       -2.9462520592   -1.7139434567    3.3139528842
N        0.0032157822   -0.1335389960   -0.7582619303
O       -1.7102471991    1.0949884882    1.4814316505
H       -4.4846788631   -1.0870919442    6.2473395148
H       -3.8547387750   -2.9281218797    4.7579436319
H       -2.7818827994    1.6539091751    3.6176518879
H       -2.0061881045   -2.1166688248    1.0186321582
H       -1.2946435704   -1.6895436998   -1.1691878311
H        1.8915569224    0.5605694187   -0.0850008615
H        0.8350791803   -0.0220302987    1.2000371283
H        0.5106342128    1.5526639216    0.4247172253
H        0.0570693651    0.9751396400   -2.5558589747
H       -0.0745036538   -0.7813851480   -2.7843671331
H        1.4702787725   -0.0787636370   -2.2879249886
24   

C       -3.9707280272   -0.8505267369    5.3386804335
C       -3.5332880197   -1.9131927501    4.5244187482
C       -3.0766864841    0.6402189891    3.8683746096
C       -2.6277317868   -0.4138405379    3.0288400621
C       -1.4873712244   -1.1348547852    0.8876276936
C       -1.0306995169   -0.9030799689   -0.4034627538
C       -1.9192635627   -0.0760583985    1.7687748210
C        0.8846510018    0.5201998433    0.2307987881
C        0.3629804068   -0.0056150774   -2.1889489745
N       -3.7467236425    0.4366505138    5.0233767480
N       -2.8637927244   -1.7119296013    3.3757201277
N        0.0270637522   -0.1544699043   -0.7631780163
O       -1.7523496856    1.1034336448    1.4713021287
H       -4.5075136555   -1.0825595685    6.2508882847
H       -3.7455184227   -2.9301146704    4.8328870991
H       -2.8838186472    1.6671277240    3.5800129149
H       -1.8350300582   -2.1317757207    1.1205755071
H       -1.3837082392   -1.6089841492   -1.1495504212
H        1.9095863294    0.6009970281   -0.1439062652
H        0.9231410290   -0.0467804743    1.1660584359
H        0.5104558543    1.5282604194    0.4347329545
H        0.0770959019    0.9924194927   -2.5366782030
H       -0.1629535741   -0.7477325763   -2.7978413235
H        1.4373625066   -0.1452851554   -2.3442427509
24   

C       -4.0151153083   -0.8742195762    5.3464161941
C       -3.4929305919   -1.9224814704    4.5639854018
C       -3.1631431689    0.6425980995    3.8776543850
C       -2.6304661974   -0.3968502253    3.0698894765
C       -1.3889933995   -1.0804451659    0.9687662336
C       -1.0378564453   -0.8233023927   -0.3585044527
C       -1.9153736038   -0.0392283091    1.8196601056
C        0.9334997813    0.5336410252    0.1897306714
C        0.3413139296   -0.0337102970   -2.2078881961
N       -3.8547498273    0.4187648124    5.0160764539
N       -2.8010507440   -1.7007334488    3.4324578525
N        0.0577879911   -0.1661547357   -0.7693851303
O       -1.8121160013    1.1408131060    1.4955971099
H       -4.5664180105   -1.1227083257    6.2455388846
H       -3.6571465225   -2.9451118602    4.8827376198
H       -3.0214617470    1.6739946701    3.5759118083
H       -1.6554854685   -2.0952207457    1.2296671023
H       -1.4867324624   -1.4868783234   -1.0917909602
H        1.9241454211    0.6945025840   -0.2465623105
H        1.0676190611   -0.0599191671    1.0994968719
H        0.5087205863    1.5074369970    0.4526843429
H        0.1338190354    0.9899345491   -2.5363457760
H       -0.2790576325   -0.7167957007   -2.7966421459
H        1.3902341959   -0.2708749904   -2.4113047323
24   

C       -4.0763916934   -0.9511301790    5.3573641460
C       -3.4490091815   -1.9579446452    4.5980890690
C       -3.3017108800    0.6225645705    3.9054891988
C       -2.6649020782   -0.3748668529    3.1210419020
C       -1.3085930983   -0.9621513571    1.0583168571
C       -1.0323479562   -0.7064833314   -0.2967186934
C       -1.9521130029    0.0311661123    1.8850022836
C        1.0141662455    0.5436756488    0.1305665084
C        0.3155677734   -0.0752017634   -2.2292659376
N       -4.0076668708    0.3493346918    5.0241847094
N       -2.7415355366   -1.6864665318    3.4872638444
N        0.0921035585   -0.1630569018   -0.7768243905
O       -1.9406120923    1.2099652778    1.5408652234
H       -4.6349659336   -1.2391248325    6.2400664181
H       -3.5431210864   -2.9893094139    4.9171455334
H       -3.2329926048    1.6603097204    3.6001074471
H       -1.4570455431   -1.9930954760    1.3478428969
H       -1.6013715666   -1.3056361319   -1.0015631165
H        1.9520419034    0.7776168432   -0.3826733784
H        1.2551489450   -0.0805801441    0.9968259066
H        0.5631922771    1.4800230335    0.4748140886
H        0.2029866131    0.9613757910   -2.5633038783
H       -0.4036635674   -0.6925720749   -2.7767225473
H        1.3216819181   -0.4265644946   -2.4785805214
24   

C       -3.8459198378   -0.9261330971    5.3569009412
C       -2.9460115372   -1.7533647587    4.6571812414
C       -4.0507549064    0.4018241512    3.5183212946
C       -3.1456956965   -0.4164593006    2.7930509598
C       -1.8982447211   -0.8740691575    0.6325614903
C       -1.3021433039   -0.3520241987   -0.5107160412
C       -2.8067528553   -0.0504125972    1.3965498142
C        0.9574736677   -0.1695883369    0.4190362348
C        0.4000384591    0.7270152604   -1.8943878665
N       -4.4092009532    0.1589668130    4.7978758712
N       -2.5894973029   -1.5132237594    3.3831764098
N       -0.0270937566    0.0595036147   -0.6529545642
O       -3.2926194450    0.9538368743    0.8818678481
H       -4.0896155102   -1.1760830409    6.3826953018
H       -2.5234939226   -2.6133765487    5.1634165647
H       -4.4829293688    1.2701859284    3.0345407206
H       -1.3955311778   -1.6726458631    1.1598880863
H       -2.0036499109    0.0842470063   -1.2178855286
H        1.2272470522   -1.2295300695    0.4639738414
H        0.5510777265    0.1422459659    1.3865728447
H        1.8664518316    0.4121397376    0.2362353390
H        1.0314302274    1.5909687183   -1.6648352463
H       -0.4628795029    1.0854249333   -2.4646650291
H        0.9632617987    0.0269034712   -2.5199847062
24   

C       -3.9506865186   -0.9757583744    5.3483397048
C       -2.9333188808   -1.7094530094    4.7076210579
C       -4.2201538209    0.2848908433    3.4712459789
C       -3.1971491166   -0.4395181215    2.8051947495
C       -1.7983620649   -0.7910668878    0.7179543541
C       -1.2554028616   -0.2463725925   -0.4298881545
C       -2.8383411926   -0.0645586309    1.4161157633
C        1.0814749816   -0.2560594257    0.3249875386
C        0.4147098966    0.7616254610   -1.9076749895
N       -4.6063513091    0.0277597414    4.7398495779
N       -2.5487429222   -1.4549813667    3.4445794498
N        0.0357580774    0.0866061450   -0.6547459977
O       -3.4150063315    0.8647912746    0.8559288558
H       -4.2107124137   -1.2317890571    6.3686090784
H       -2.4407684969   -2.5066934884    5.2518620758
H       -4.7243235216    1.0898686549    2.9490394966
H       -1.2344976949   -1.5260530844    1.2748669243
H       -1.9758924142    0.2299001234   -1.0910412533
H        1.2637883050   -1.3354752781    0.3204831618
H        0.7821042496    0.0570209119    1.3303736010
H        2.0186337189    0.2541745043    0.0811791244
H        1.1364090256    1.5597069871   -1.7077420643
H       -0.4583261548    1.2133467014   -2.3894245628
H        0.8601641239    0.0403656619   -2.6005853537
24   

C       -4.0268247423   -1.0458075590    5.3525694739
C       -2.9123820666   -1.6761807263    4.7654184389
C       -4.3376435126    0.1690519733    3.4521069213
C       -3.2172469401   -0.4515694886    2.8398302970
C       -1.6902465153   -0.6684362830    0.8245126522
C       -1.2055934150   -0.1196954082   -0.3397044608
C       -2.8377482657   -0.0525357718    1.4631490945
C        1.1808649554   -0.3082654220    0.2266668896
C        0.4148153529    0.7711610921   -1.9436188398
N       -4.7525958285   -0.1178922593    4.7050461634
N       -2.4984277180   -1.3914574669    3.5181206720
N        0.0877957243    0.1209706189   -0.6632451466
O       -3.4875789169    0.8033048925    0.8667182337
H       -4.3057530746   -1.3207587565    6.3628712756
H       -2.3673867505   -2.4164253911    5.3393319795
H       -4.8968300714    0.9154626516    2.8997554588
H       -1.0792690351   -1.3488993431    1.4004517156
H       -1.9440435652    0.3754477930   -0.9663355040
H        1.2618045278   -1.4000224068    0.2256413784
H        1.0021683023    0.0417936301    1.2483824005
H        2.1358687589    0.1086511966   -0.1082955790
H        1.2184160000    1.5013571847   -1.8064895148
H       -0.4537050958    1.3018859611   -2.3465486584
H        0.7336113429    0.0198636172   -2.6734877101
24   

C       -4.1019887051   -1.1252865232    5.3346206430
C       -2.9029174378   -1.6437035067    4.8076957054
C       -4.4357138634    0.0490709696    3.4128309202
C       -3.2305410374   -0.4593689456    2.8608585148
C       -1.5919901629   -0.5338276721    0.9257402065
C       -1.1515387412   -0.0024913018   -0.2593363654
C       -2.8262820690   -0.0314188366    1.4999832321
C        1.2482087922   -0.3905032028    0.1313054560
C        0.4143557979    0.7300139174   -1.9916629971
N       -4.8823009645   -0.2746898046    4.6457171251
N       -2.4571685534   -1.3219934496    3.5804767376
N        0.1306334915    0.1237472106   -0.6797407314
O       -3.5314387482    0.7501996336    0.8654955007
H       -4.4028665851   -1.4247319610    6.3315708063
H       -2.3173480020   -2.3258091003    5.4128224793
H       -5.0379491804    0.7350117753    2.8282645686
H       -0.9497875421   -1.1672387514    1.5208061392
H       -1.8987065485    0.5062573945   -0.8642133829
H        1.2195932702   -1.4844519421    0.1631629430
H        1.1939829771    0.0046752430    1.1507290033
H        2.2076468421   -0.0840552386   -0.2972199057
H        1.2818827701    1.3939464786   -1.9253853808
H       -0.4357829116    1.3250589508   -2.3403250688
H        0.6174794408   -0.0531358368   -2.7293550269
24   

C       -4.2876172470   -1.1537654734    5.2364046142
C       -4.3654766985   -0.4344052243    4.0278026937
C       -2.1669711122   -1.7966563722    4.7140637881
C       -2.2217158382   -1.0788082822    3.4903044602
C       -1.0817599591   -0.3640804278    1.3403986046
C       -0.0069655727   -0.4473399251    0.4962869455
C       -1.0405879459   -1.0945406155    2.5940329725
C       -1.1367627878    0.4857721847   -1.4835232278
C        1.3048950995   -0.2126309917   -1.5555534279
N       -3.1902213412   -1.8425765606    5.5944142675
N       -3.3474446391   -0.3880122148    3.1504089992
N        0.0416192895   -0.0866183743   -0.8087986407
O       -0.0342096120   -1.7227778641    2.9156954061
H       -5.1450286234   -1.1496500564    5.8989252177
H       -5.2785081465    0.1012056025    3.7958259411
H       -1.2648784166   -2.3407831942    4.9691809206
H       -1.9844444670    0.1534171706    1.0490733601
H        0.8897721204   -0.9187720371    0.8916978971
H       -1.3798936046    1.4633605390   -1.0547754901
H       -1.9979425668   -0.1819400714   -1.3794255001
H       -0.9413885287    0.6193365496   -2.5522012558
H        1.1161542983   -0.6026741931   -2.5605949419
H        1.9899833169   -0.9028355815   -1.0528738748
H        1.7914918381    0.7649010072   -1.6354555802
24   

C       -4.2752462098   -1.1565190216    5.2388800026
C       -4.3921389713   -0.5144207745    3.9905677507
C       -2.1137227214   -1.6876025729    4.7603119568
C       -2.2076025403   -1.0471801786    3.4965790073
C       -1.1081744482   -0.3966032440    1.3068941756
C       -0.0100437265   -0.4225271490    0.4893267757
C       -1.0238906758   -1.0417877648    2.6034543446
C       -1.0194911447    0.8580533202   -1.3553272868
C        1.3436783162   -0.0572063502   -1.5146176606
N       -3.1373216680   -1.7495688763    5.6392706227
N       -3.3736492221   -0.4517234912    3.1147271073
N        0.1003436170    0.1199367658   -0.7447931056
O        0.0175958886   -1.5871749042    2.9624760511
H       -5.1355491515   -1.1711831298    5.8974908422
H       -5.3368506299   -0.0544991553    3.7254092876
H       -1.1799705725   -2.1565854662    5.0485622244
H       -2.0258357270    0.0857367019    1.0025755647
H        0.8708504245   -0.9388040854    0.8636103470
H       -1.3293209024    1.6845845081   -0.7078709340
H       -1.8686145800    0.1874027283   -1.5221930762
H       -0.7216708880    1.2788314797   -2.3209405619
H        1.1848543781   -0.7785459617   -2.3227121855
H        2.1525895221   -0.4258520209   -0.8756836099
H        1.6643219572    0.8978130338   -1.9425538474
