26

C     -0.27552   -0.72644    0.29718
C      0.04204   -1.98805   -0.20889
C     -0.97990   -0.61343    1.49758
C     -1.06128   -3.01800    1.68630
C     -0.34950   -3.14487    0.47408
C     -1.37474   -1.74967    2.21688
C     -1.45205   -4.25731    2.45118
C     -0.00649   -4.51304   -0.07845
C     -1.23398   -5.27570   -0.62172
C     -2.44577   -5.13225    0.31342
C     -2.11822   -1.58781    3.52315
N     -2.09159   -5.23014    1.72731
O     -1.21670   -4.39831    3.65310
H      0.02761    0.16837   -0.24080
H      0.59987   -2.07848   -1.13826
H     -1.22564    0.37155    1.88732
H      0.74009   -4.41474   -0.87192
H      0.45562   -5.11490    0.71109
H     -1.51564   -4.89173   -1.60946
H     -0.96828   -6.33176   -0.74707
H     -2.92742   -4.16517    0.14204
H     -3.19295   -5.90118    0.09985
H     -3.00563   -2.22626    3.56757
H     -1.48661   -1.87860    4.36650
H     -2.43323   -0.54933    3.65772
H     -2.29873   -6.07645    2.24453
