29

C      2.01094   -1.05270   -0.03123
C      2.45328   -3.51200    8.70245
C      3.14568   -1.30046    0.74903
C      0.77920   -0.83130    0.59277
C      3.51680   -3.81081    7.83962
C      1.43402   -2.67144    8.25324
C      3.05308   -1.32093    2.14345
C      0.68742   -0.85747    1.98771
C      3.55729   -3.27733    6.55355
C      1.46112   -2.12653    6.96282
C      1.82132   -1.09902    2.77310
C      2.52840   -2.43219    6.10565
C      1.99129    0.36362    4.81331
C      1.71090   -1.04824    4.28304
O      2.66211   -1.98438    4.81772
H      2.08480   -1.03814   -1.11560
H      2.42330   -3.92723    9.70580
H      4.10490   -1.48026    0.26990
H     -0.10980   -0.64626   -0.00483
H      4.31973   -4.46459    8.17083
H      0.60206   -2.42767    8.90930
H      3.93144   -1.52380    2.74813
H     -0.27596   -0.69287    2.46704
H      4.37310   -3.50433    5.87322
H      0.65373   -1.47495    6.64964
H      2.98985    0.68159    4.49982
H      1.93986    0.39956    5.90479
H      1.26206    1.06968    4.40431
H      0.69915   -1.36319    4.56360
