27

C      1.42811   -1.75738   -0.10786
C      6.78918   -1.42178    4.94893
C      0.67589   -0.72893    0.46776
C      7.15274   -0.14324    4.50661
C      2.51556   -2.27716    0.59056
C      5.79339   -2.12836    4.27847
C      1.01653   -0.23999    1.73098
C      6.52091    0.42143    3.39633
C      2.88386   -1.75957    1.84311
C      5.12013   -1.57312    3.17640
C      2.12255   -0.73115    2.43940
C      5.51801   -0.29968    2.75637
C      4.07035   -2.40116    2.49338
C      2.41488   -0.16249    3.81204
O      4.20726   -3.62164    2.46441
F      4.93140    0.26794    1.67363
H      1.16468   -2.15390   -1.08464
H      7.28542   -1.86349    5.80818
H     -0.18192   -0.31705   -0.05796
H      7.93277    0.41291    5.01934
H      3.10341   -3.08928    0.17348
H      5.50854   -3.12777    4.59298
H      0.40627    0.53827    2.18395
H      6.79432    1.40129    3.01697
H      2.79927   -0.91395    4.50520
H      3.15408    0.64385    3.76145
H      1.50339    0.25738    4.24648
