29

C      1.02020   -6.21847    4.93109
C      1.92440   -1.03743   -0.05281
C      2.79603   -1.82635    0.70104
C      2.12977   -5.78137    5.66725
C      0.31679   -5.29920    4.15061
C      0.91697   -0.31224    0.59067
C      2.65204   -1.88475    2.08983
C      2.52390   -4.44510    5.62653
C      0.70292   -3.95399    4.09619
C      0.75883   -0.36254    1.98196
C      1.64056   -1.16547    2.73434
C      1.80931   -3.52657    4.84265
C     -0.33956    0.43210    2.65291
C      1.50201   -1.21754    4.24453
O      2.28007   -2.23534    4.87001
H      0.71379   -7.26021    4.96391
H      2.02559   -0.98504   -1.13385
H      3.58321   -2.39538    0.21325
H      2.68919   -6.48413    6.27960
H     -0.53949   -5.62520    3.56552
H      0.23983    0.30436    0.00338
H      3.32323   -2.49882    2.68150
H      3.37791   -4.08914    6.19568
H      0.15969   -3.26859    3.45614
H     -1.07060   -0.22090    3.14556
H      0.05551    1.10596    3.42201
H     -0.88090    1.04202    1.92527
H      1.86779   -0.28373    4.68492
H      0.45085   -1.32213    4.54022
