29

C      2.87226   -2.69304    8.49151
C      1.90754   -1.24218   -0.47514
C      0.71020   -1.61473    0.13823
C      3.55550   -3.50613    7.57565
C      2.00468   -1.71087    8.01266
C      3.00250   -0.86181    0.30866
C      0.62497   -1.60254    1.53385
C      3.37442   -3.33602    6.20528
C      1.81103   -1.52780    6.63655
C      2.92929   -0.84207    1.70702
C      1.71571   -1.22000    2.32185
C      2.50114   -2.34389    5.72892
C      4.12845   -0.42840    2.52838
C      1.57870   -1.20686    3.82153
O      2.39094   -2.25844    4.36620
H      3.01549   -2.82709    9.55998
H      1.99251   -1.24665   -1.55897
H     -0.14634   -1.91427   -0.45979
H      4.23410   -4.27691    7.93237
H      1.46570   -1.07462    8.71029
H      3.93235   -0.57289   -0.17628
H     -0.30255   -1.89841    2.01931
H      3.89592   -3.95817    5.48345
H      1.12599   -0.76085    6.29377
H      3.89587    0.42376    3.17818
H      4.46099   -1.24250    3.17868
H      4.96187   -0.13610    1.88444
H      1.90918   -0.24514    4.23555
H      0.53238   -1.36089    4.11194
