27

C      2.36323   -0.91640   -0.25491
C     -3.42907   -2.31545    4.11248
C      1.98802   -2.13431    0.32146
C      2.47106    0.22292    0.55026
C     -2.76273   -3.20259    4.96799
C     -2.67503   -1.40790    3.36425
C      1.72781   -2.21604    1.69294
C      2.20507    0.13921    1.92001
C     -1.37337   -3.18071    5.07098
C     -1.28044   -1.37408    3.45965
C      1.83713   -1.08062    2.50366
C     -0.60940   -2.26432    4.31948
C      1.59191   -1.15231    4.00408
N      0.78717   -2.29144    4.42202
H      2.56240   -0.85305   -1.32166
H     -4.51221   -2.33427    4.03186
H      1.89185   -3.02204   -0.29893
H      2.75457    1.17622    0.11107
H     -3.32890   -3.91698    5.56085
H     -3.17298   -0.71368    2.69155
H      1.42052   -3.15525    2.14290
H      2.27873    1.03199    2.53897
H     -0.86711   -3.87788    5.73679
H     -0.72123   -0.67135    2.85212
H      2.56050   -1.24356    4.50839
H      1.15013   -0.20204    4.34199
H      1.11400   -2.73244    5.27157
