22

C      1.93696   -0.94362   -0.14332
C      2.95340   -1.57936    0.57815
C      0.83370   -0.40955    0.53153
C      0.47843   -3.30867    6.67441
C     -0.07707   -4.34335    5.90483
C      2.87012   -1.68428    1.96974
C      0.74241   -0.51003    1.92294
C      1.08591   -2.23647    6.03343
C      0.00893   -4.24339    4.51886
C      1.76356   -1.14751    2.62488
C      1.11007   -2.24903    4.62719
N      0.59295   -3.21348    3.88042
O      1.71551   -1.17906    4.02338
H      2.00529   -0.86290   -1.22487
H      3.81319   -1.99400    0.05840
H      0.04269    0.08685   -0.02452
H      0.43631   -3.34137    7.76010
H     -0.56042   -5.19836    6.36714
H      3.64756   -2.17548    2.54746
H     -0.10649   -0.10369    2.46488
H      1.53219   -1.40833    6.57424
H     -0.40652   -5.01982    3.87850
