32

C     -4.75010   -0.19537   -5.08557
C     -5.62481    0.82262   -5.47466
C     -3.43995    0.12779   -4.72380
C     -5.18027    2.14835   -5.50905
C     -2.99671    1.45499   -4.76117
C     -3.86466    2.48736   -5.16534
C     -1.55625    1.76752   -4.44517
C     -0.60205    3.13981   -0.77709
C     -2.03208    2.75260   -1.17972
C      0.31934    3.18964   -2.00468
C     -2.04470    1.45714   -2.00410
C      0.24574    1.87873   -2.79743
C     -3.39284    3.92128   -5.23451
N     -1.14123    1.56303   -3.15310
O     -0.79494    2.15601   -5.33654
H     -5.08377   -1.22944   -5.06129
H     -6.64924    0.58746   -5.75212
H     -2.75149   -0.65422   -4.41210
H     -5.86645    2.93588   -5.81275
H     -0.21547    2.39733   -0.06497
H     -0.60098    4.10411   -0.25685
H     -2.66331    2.62256   -0.29282
H     -2.47955    3.55461   -1.78056
H      0.02162    4.01347   -2.66471
H      1.35632    3.37535   -1.70201
H     -1.70977    0.61705   -1.38016
H     -3.05131    1.22862   -2.34989
H      0.82305    1.93692   -3.71928
H      0.63641    1.05018   -2.19102
H     -2.92447    4.23654   -4.29544
H     -2.63878    4.04124   -6.01767
H     -4.22606    4.59827   -5.44101
