30

C      5.61882    5.10577   -3.06416
C      5.67732    5.85393   -1.88152
C      4.55699    4.22031   -3.27194
C      0.28339    1.04845   -0.12408
C      4.68111    5.71776   -0.91566
C      3.56394    4.07570   -2.30064
C     -0.38323    2.26903   -0.07798
C      1.68078    0.99952   -0.06440
C      3.61712    4.82248   -1.11323
C      1.75325    3.45842   -0.01037
C      0.33930    3.47190    0.00294
C      2.37305    2.19909   -0.00630
C      2.54053    4.72212   -0.08935
C     -0.12487    5.73892    0.93626
C      1.23591    5.68843    1.62376
N      2.30326    5.75632    0.63831
N     -0.37153    4.68370    0.05882
O     -0.95381    6.61739    1.10839
F      3.72299    2.14816    0.06262
H      6.39535    5.21295   -3.81727
H      6.50157    6.54251   -1.71425
H      4.50104    3.64285   -4.19104
H     -0.28574    0.12496   -0.17805
H      4.70957    6.29885    0.00033
H      2.73870    3.39134   -2.47640
H     -1.46958    2.30060   -0.08120
H      2.22718    0.06222   -0.05531
H      1.29386    6.55351    2.28368
H      1.28146    4.77068    2.23083
H     -1.33241    4.66613   -0.26904
