22

C     -1.31731   -1.03982   -0.74283
C     -1.76516   -2.38493   -0.91948
C     -0.00289   -0.75415   -0.50013
C     -0.83952   -3.39370   -0.84959
C      1.00613   -1.80406   -0.44038
C     -1.07692   -4.85640   -1.12573
C     -2.54145   -6.77185   -1.29052
C     -3.22928   -4.90644    0.17142
N      0.47522   -3.09222   -0.62584
N     -2.29792   -5.40162   -0.84097
O      2.21370   -1.64324   -0.25793
O     -0.16134   -5.50560   -1.64368
H     -2.04215   -0.23151   -0.80764
H     -2.80188   -2.60095   -1.14247
H      0.35247    0.26208   -0.36661
H     -2.24969   -7.49974   -0.52260
H     -1.96282   -6.96863   -2.19164
H     -3.60830   -6.88896   -1.50278
H     -4.17833   -4.59240   -0.27951
H     -2.80338   -4.06930    0.72058
H     -3.43953   -5.71084    0.88574
H      1.14613   -3.85572   -0.69568
