25   
Generated by ForceBalance from scan.xyz: Frame 1 of 24
C       -5.2750725077    0.9517321160   -3.5471662751
C       -3.9159748464    1.1511572469   -3.2740055575
C       -5.8862592583   -0.2761315384   -3.3074038759
C       -3.1468176698    0.1051282502   -2.7503320724
C       -3.7691381775   -1.1347003290   -2.5098415098
C       -5.1195337293   -1.3244292334   -2.7838576155
C        1.4416902157    2.6947281429   -0.9202385014
C        0.6745981893    1.6635233361   -0.0981836540
C        0.3275528264    1.2117373346   -2.3100215335
C       -1.1460120801    1.3942764539   -2.6948981410
O        0.9043631649    2.5174387558   -2.2398095195
O        0.4905079940    0.6043509639   -1.0425121552
O       -1.8259513587    0.1711660049   -2.4342406218
F       -3.0295706842   -2.1395008652   -2.0085681559
Cl      -5.8455832162   -2.8806309758   -2.4697503194
H       -5.8615913550    1.7705268679   -3.9533699223
H       -3.4669390255    2.1175383740   -3.4699188529
H       -6.9384228823   -0.4347579058   -3.5178332637
H        1.2647063383    3.7283553422   -0.6132941980
H        2.5190393046    2.4885114697   -0.9236382202
H        1.2333967450    1.2645873846    0.7502821528
H       -0.2914962191    2.0530216698    0.2498579374
H        0.8557108220    0.5876469045   -3.0391274409
H       -1.2146717057    1.6717258283   -3.7541397402
H       -1.5746435980    2.2031725425   -2.0904297369
25   
Generated by ForceBalance from scan.xyz: Frame 2 of 24
C       -5.0991880696    0.8905849410   -3.4925941297
C       -3.7312630692    1.1245973294   -3.3029215404
C       -5.6928622260   -0.2969348728   -3.0732986223
C       -2.9353714842    0.1542019979   -2.6825264961
C       -3.5400865854   -1.0450593486   -2.2597962913
C       -4.8993650082   -1.2689732777   -2.4515212037
C        1.1599494804    2.8150756189   -0.7833353684
C        0.6292084449    1.4850015328   -0.2257574124
C        0.5536723334    1.3571719914   -2.4782810654
C       -0.9497582328    1.4585123556   -2.8336535046
O        1.0338485434    2.6746481142   -2.2112233567
O        0.8013513581    0.5888052941   -1.3269704048
O       -1.6022276635    0.2584792415   -2.4322552026
F       -2.7752834665   -1.9754858620   -1.6621685054
Cl      -5.6034112308   -2.7712477457   -1.9087640984
H       -5.7064945876    1.6501900654   -3.9759020303
H       -3.2967133893    2.0582036355   -3.6395466831
H       -6.7517434874   -0.4818426042   -3.2185465802
H        0.5800128701    3.6801931548   -0.4472670310
H        2.2167187435    2.9710131692   -0.5436373807
H        1.2070384545    1.0991487153    0.6155355060
H       -0.4287576737    1.5472035850    0.0590247730
H        1.1291174323    0.9189587291   -3.2974429762
H       -1.0571370146    1.6260377021   -3.9124383989
H       -1.3866310951    2.3160562309   -2.3074909244
25   
Generated by ForceBalance from scan.xyz: Frame 3 of 24
C       -4.1434684727    0.0711383436   -4.7306045679
C       -2.9606956253    0.5152208456   -4.1256715993
C       -4.1510570508   -1.0377098792   -5.5725797118
C       -1.7572773341   -0.1584806268   -4.3659836705
C       -1.7701356896   -1.2804224983   -5.2166033864
C       -2.9491676843   -1.7153730458   -5.8123280084
C        1.2390760313    0.3533208359   -0.4146944298
C        1.5467929066   -0.5751773618   -1.6085626795
C        0.9733266863    1.4439233744   -2.4276823566
C       -0.4908105298    1.2546506788   -2.9273716456
O        0.9626113389    1.6335261864   -1.0163846599
O        1.8012412005    0.3394284632   -2.6802331488
O       -0.5434103479    0.1651195650   -3.8437507745
F       -0.6143473502   -1.9307709082   -5.4403533288
Cl      -2.9141563020   -3.1136889829   -6.8565038114
H       -5.0708585736    0.6025509630   -4.5383830176
H       -2.9850657078    1.3811761851   -3.4751439889
H       -5.0650624503   -1.3844318990   -6.0425908973
H        0.3732167163    0.0148320958    0.1643737429
H        2.0945972387    0.4767444706    0.2554305311
H        2.4414729738   -1.1841703985   -1.4693424233
H        0.6987094302   -1.2236418591   -1.8576421288
H        1.4346066312    2.3190762229   -2.8905787943
H       -0.8345974376    2.1787415835   -3.4083515379
H       -1.1389215793    1.0531129040   -2.0662985408
25   
Generated by ForceBalance from scan.xyz: Frame 4 of 24
C       -4.0527915119    0.2223089775   -4.9859560452
C       -2.9057222631    0.6672140058   -4.3164222121
C       -4.0447717074   -0.9558978608   -5.7280262811
C       -1.7224901166   -0.0771423065   -4.3894773565
C       -1.7194337807   -1.2692700666   -5.1385058202
C       -2.8630960186   -1.7041517046   -5.7992603476
C        1.4587414999    0.2933975732   -0.4720213648
C        1.6890232009   -0.4919250030   -1.7666229968
C        0.9108812550    1.5482389992   -2.3426249275
C       -0.5119633961    1.3964087250   -2.9610032835
O        0.8079143859    1.4993676829   -0.9155668369
O        1.8208496532    0.5562596121   -2.7364539134
O       -0.5418633677    0.2407418158   -3.7947223773
F       -0.5832068607   -1.9878552420   -5.1983262690
Cl      -2.8093335986   -3.1909899314   -6.7122329312
H       -4.9650813355    0.8082238433   -4.9239380513
H       -2.9412203083    1.5874470196   -3.7457291597
H       -4.9315721492   -1.3031208525   -6.2472355867
H        0.8064233450   -0.2233677496    0.2374902296
H        2.4024967488    0.5547376038    0.0199688539
H        2.6123114446   -1.0732130785   -1.7744800370
H        0.8397756357   -1.1372561693   -2.0195533941
H        1.3363429338    2.5156155770   -2.6267813028
H       -0.7509751630    2.2865342134   -3.5566678969
H       -1.2423156318    1.3070809274   -2.1494992889
25   
Generated by ForceBalance from scan.xyz: Frame 5 of 24
C       -3.9597725460    0.2560343326   -5.1286794161
C       -2.8426165935    0.7181527055   -4.4215306658
C       -3.9539106565   -0.9879417878   -5.7546420427
C       -1.6927456278   -0.0752999768   -4.3364300664
C       -1.6926940542   -1.3331469429   -4.9681828313
C       -2.8057952513   -1.7851806680   -5.6682223108
C        1.4879127101    0.1541347342   -0.4904514250
C        1.8166370497   -0.4431959453   -1.8585675376
C        0.8350156039    1.5734742491   -2.2000437094
C       -0.5244105705    1.4613085004   -2.9350194281
O        0.6443299211    1.2744132067   -0.8130438097
O        1.8381355956    0.7240197968   -2.6951410703
O       -0.5415532329    0.2549133188   -3.6942167739
F       -0.5887816293   -2.0985123282   -4.8748364583
Cl      -2.7565779750   -3.3544994012   -6.4309147649
H       -4.8462937834    0.8803875997   -5.1893908349
H       -2.8740943910    1.6905064100   -3.9445803294
H       -4.8174111545   -1.3489645567   -6.3028796542
H        0.9322996941   -0.5245871621    0.1617045000
H        2.3894534195    0.5069845020    0.0249441020
H        2.8008664703   -0.9114028489   -1.9137464004
H        1.0462379846   -1.1417984130   -2.2028216876
H        1.2026120847    2.6027264087   -2.2888483256
H       -0.6477869021    2.3158266263   -3.6130266391
H       -1.3284487719    1.4728358223   -2.1914368837
25   
Generated by ForceBalance from scan.xyz: Frame 6 of 24
C       -4.0291254147    0.3758770214   -5.2194701605
C       -2.9193462796    0.8191898354   -4.4891640743
C       -4.0728530776   -0.9078457211   -5.7577095812
C       -1.8283824349   -0.0345657411   -4.2908850508
C       -1.8781806947   -1.3315865058   -4.8345793445
C       -2.9832302257   -1.7647678187   -5.5585721638
C        1.4439190404    0.0231896157   -0.6610507395
C        1.8436303791   -0.3671252328   -2.0841179783
C        0.7092343533    1.6050023184   -2.1825805986
C       -0.6161521295    1.5338625407   -2.9588726740
O        0.5128155721    1.1004235133   -0.8600082208
O        1.7667898040    0.8912600650   -2.7753378923
O       -0.6906277650    0.2707354042   -3.6148376204
F       -0.8288353192   -2.1523626974   -4.6338047381
Cl      -2.9974091741   -3.3838804354   -6.2103168178
H       -4.8702883831    1.0464677003   -5.3683239993
H       -2.9106074506    1.8231406086   -4.0816327855
H       -4.9308251947   -1.2543758719   -6.3236644462
H        0.9376186426   -0.7772622051   -0.1157752703
H        2.3038408784    0.3797216775   -0.0806243017
H        2.8692538926   -0.7308579543   -2.1699051954
H        1.1469547137   -1.0855884806   -2.5270582623
H        1.0144407070    2.6579210938   -2.1185618711
H       -0.6438516562    2.3343019470   -3.7098137051
H       -1.4438679537    1.6677806550   -2.2535388474
25   
Generated by ForceBalance from scan.xyz: Frame 7 of 24
C       -3.9779313976    0.4102287844   -5.3090537622
C       -2.8913726445    0.8507376801   -4.5431521618
C       -4.0577888160   -0.9052244269   -5.7595839526
C       -1.8616975931   -0.0394626551   -4.2184913882
C       -1.9463064177   -1.3676143417   -4.6753135249
C       -3.0280281438   -1.7973145961   -5.4356035207
C        1.4296860524   -0.1048776214   -0.7673567366
C        1.9194313330   -0.2770341821   -2.2050077813
C        0.6410399642    1.6143187335   -2.1012163327
C       -0.6340534731    1.5666497126   -2.9428500411
O        0.4294528218    0.9208385458   -0.8740347240
O        1.7619779922    1.0478277011   -2.7428100118
O       -0.7537740701    0.2572423696   -3.4923145284
F       -0.9523825116   -2.2204258294   -4.3571307615
Cl      -3.0878009932   -3.4554486877   -5.9771727083
H       -4.7722164436    1.1084035818   -5.5561364891
H       -2.8524800242    1.8800222729   -4.2065386980
H       -4.8981297450   -1.2492700918   -6.3528484890
H        0.9616969581   -1.0032541698   -0.3576360785
H        2.2338552992    0.2310842033   -0.1008734396
H        2.9759702241   -0.5419630329   -2.2795426475
H        1.3066927496   -0.9891260277   -2.7654174534
H        0.8737620285    2.6679376154   -1.8912194783
H       -0.5630549962    2.3047697163   -3.7522790163
H       -1.4899972282    1.8075370045   -2.3012914306
25   
Generated by ForceBalance from scan.xyz: Frame 8 of 24
C       -3.8032768304    0.3107911450   -5.2772798637
C       -2.7488339723    0.7929586321   -4.4916428346
C       -3.9090259110   -1.0413999627   -5.5940838141
C       -1.7785459526   -0.0926868227   -4.0113124807
C       -1.8890727396   -1.4574062487   -4.3335372568
C       -2.9383097554   -1.9293640805   -5.1139198070
C        1.2786219048   -0.3506147199   -1.1273633376
C        2.1153169736   -0.1093672543   -2.4038336034
C        0.7416384486    1.6976535751   -2.0272260108
C       -0.5264330479    1.6060802467   -2.8775765662
O        0.6561270068    0.9167801974   -0.8534694346
O        1.8893296074    1.2723162740   -2.7333795115
O       -0.7090434315    0.2391000971   -3.2427737373
F       -0.9490603966   -2.3035305161   -3.8662544603
Cl      -3.0301422006   -3.6318289700   -5.4855943639
H       -4.5521846999    1.0054543714   -5.6459219030
H       -2.6895694080    1.8496855663   -4.2590773961
H       -4.7247396092   -1.4169662619   -6.2024112044
H        0.5155157824   -1.1171879147   -1.2873812341
H        1.8886558222   -0.6103942499   -0.2583647329
H        3.1889106732   -0.2362367151   -2.2422816703
H        1.7858127540   -0.7506764055   -3.2259398761
H        0.8855827578    2.7448368550   -1.7353243681
H       -0.4068949111    2.2302891754   -3.7721106388
H       -1.3817940998    1.9636448281   -2.2903433988
25   
Generated by ForceBalance from scan.xyz: Frame 9 of 24
C        0.3978075344   -1.8954026596   -5.5273318186
C        0.0312161512   -1.5096649805   -4.2356291240
C       -0.0378783785   -1.1688757703   -6.6374185326
C       -0.7944802012   -0.3998648423   -4.0359103475
C       -1.2543915144    0.3077669302   -5.1552763442
C       -0.8654197542   -0.0587729906   -6.4428083990
C        2.5810629660    0.9713081089   -2.6591477367
C        2.0660881876    1.4467636737   -4.0205458415
C        0.4655917479    1.7263157488   -2.3578104394
C       -0.9719887787    1.2303237930   -2.2578481844
O        1.3742731770    0.7354864168   -1.9281780996
O        0.8128859456    2.0696737322   -3.7024427722
O       -1.1779494731   -0.0973011138   -2.7561836429
F       -2.0747367655    1.3630078136   -4.9775624301
Cl      -1.4349678580    0.8733478311   -7.8057814140
H        1.0383302916   -2.7606315766   -5.6713852494
H        0.3785286162   -2.0461273666   -3.3585374186
H        0.2505191917   -1.4498576605   -7.6448863695
H        3.1413284585    0.0354457836   -2.6992436473
H        3.1849706329    1.7427117266   -2.1611191109
H        2.7195372625    2.1841457771   -4.4950412305
H        1.8927523083    0.6107523122   -4.7060847864
H        0.5602689534    2.6367462402   -1.7399780194
H       -1.6208803960    1.9530378667   -2.7602657830
H       -1.2522046746    1.1699597577   -1.2038963179
25   
Generated by ForceBalance from scan.xyz: Frame 10 of 24
C        0.4612494802   -1.8965387550   -5.4185847809
C        0.0469463768   -1.5002472650   -4.1457623280
C        0.0524743820   -1.1905605971   -6.5530734603
C       -0.7996686123   -0.3990596836   -3.9878773164
C       -1.2332203280    0.2864031339   -5.1312352722
C       -0.7970150278   -0.0916350569   -6.4017258114
C        2.5313334939    0.8547697125   -2.8087296754
C        2.0108916080    1.5849223267   -4.0475799069
C        0.4838232237    1.6894900409   -2.2903740117
C       -0.9896595704    1.2711451630   -2.2732325716
O        1.3316707137    0.5829851250   -2.0790460707
O        0.8323309990    2.2468897807   -3.5680533093
O       -1.2210251371   -0.0694132160   -2.7250121436
F       -2.0792825599    1.3281586612   -4.9985303702
Cl      -1.3376077145    0.8121969413   -7.7949684493
H        1.1190057171   -2.7536262521   -5.5301514218
H        0.3770301404   -2.0156411462   -3.2500411579
H        0.3790927189   -1.4802648800   -7.5463216974
H        3.0157051090   -0.0988710232   -3.0263475253
H        3.2060142136    1.4873097393   -2.2152455253
H        2.7081489713    2.3342377737   -4.4325209047
H        1.7415533370    0.8863831434   -4.8472621296
H        0.6500235005    2.4699499832   -1.5294217244
H       -1.5600022017    2.0022815384   -2.8510051391
H       -1.3538537818    1.2679245653   -1.2432994776
25   
Generated by ForceBalance from scan.xyz: Frame 11 of 24
C        0.5016961293   -1.9223426056   -5.3660761294
C        0.0764641133   -1.4942053337   -4.1081275878
C        0.0886782381   -1.2574971431   -6.5244512130
C       -0.7831799862   -0.3976258045   -3.9864686684
C       -1.2217217192    0.2443326945   -5.1535154919
C       -0.7771898242   -0.1679484182   -6.4116303327
C        2.5063534502    0.7896337865   -2.8965777194
C        1.9925358602    1.7385510195   -3.9736970026
C        0.5230900569    1.6862327448   -2.1737051043
C       -0.9723569377    1.3251843584   -2.3330014786
O        1.3270856225    0.5246482874   -2.1300709840
O        0.9800485307    2.4790567013   -3.2801544302
O       -1.2157416963   -0.0287276011   -2.7388438038
F       -2.0862729775    1.2766031527   -5.0592319781
Cl      -1.3297518279    0.6810736965   -7.8341619861
H        1.1707670595   -2.7739558672   -5.4487544264
H        0.4088285239   -1.9775443552   -3.1958314141
H        0.4238574364   -1.5740274084   -7.5066032488
H        2.8738862816   -0.1629387313   -3.2837322276
H        3.2747847230    1.2609551772   -2.2690385634
H        2.7457480237    2.4415755019   -4.3373897500
H        1.5585433401    1.1909410595   -4.8188362970
H        0.6606944552    2.2984967516   -1.2704767701
H       -1.4253773716    2.0447438915   -3.0177782552
H       -1.4702893697    1.3986262253   -1.3636921665
25   
Generated by ForceBalance from scan.xyz: Frame 12 of 24
C        0.4191214134   -2.1243491413   -5.2587693263
C       -0.0245009956   -1.6215930334   -4.0364120020
C        0.1782369209   -1.4296246308   -6.4485035765
C       -0.7334737873   -0.4158366372   -3.9770220810
C       -1.0007135858    0.2586866524   -5.1771060173
C       -0.5340124289   -0.2308869790   -6.3998530805
C        2.3641329562    0.8250575246   -3.2425573092
C        1.8028943759    2.0866478518   -3.8981122598
C        0.5736186444    1.6453155567   -2.0191030275
C       -0.9274276567    1.3447351307   -2.3278178671
O        1.3906261592    0.5051877132   -2.2362490631
O        1.0798353000    2.7000311632   -2.8243483187
O       -1.2019925401    0.0049273152   -2.7638785485
F       -1.7175023164    1.4049444241   -5.1539430775
Cl      -0.8647589920    0.6694217746   -7.8598276368
H        0.9713824689   -3.0590484202   -5.2884103134
H        0.1819881878   -2.1301648176   -3.1008496778
H        0.5308662124   -1.8048133887   -7.4034455320
H        2.4391061979   -0.0212919340   -3.9302113958
H        3.3352924563    1.0085127181   -2.7677003283
H        2.5687034392    2.7889518120   -4.2327076913
H        1.1352465350    1.8489256310   -4.7349277270
H        0.6741780016    1.9771008625   -0.9792964644
H       -1.2843604484    2.0811223073   -3.0506178209
H       -1.5124680945    1.4443110018   -1.4119049114
25   
Generated by ForceBalance from scan.xyz: Frame 13 of 24
C        0.3439511274   -2.2556148511   -5.1753060165
C       -0.1139942139   -1.7081355872   -3.9784049793
C        0.2041826174   -1.5601305166   -6.3810484795
C       -0.7359959507   -0.4540819999   -3.9588836821
C       -0.9076592867    0.2203881444   -5.1762674199
C       -0.4240274451   -0.3148476677   -6.3733027252
C        2.2622228695    0.9099979263   -3.4787465730
C        1.7186480640    2.3103625563   -3.7819334604
C        0.6328014509    1.5319121636   -1.9540914634
C       -0.8655725223    1.3484879852   -2.3549950272
O        1.4417605010    0.4500579475   -2.3899263450
O        1.1656208291    2.7148339638   -2.5216995250
O       -1.2137977064    0.0178228930   -2.7674952457
F       -1.5520818455    1.4108157223   -5.1997339063
Cl      -0.6325119223    0.5882503938   -7.8544392232
H        0.8316818734   -3.2259474328   -5.1718724356
H        0.0219188606   -2.2176760935   -3.0306095433
H        0.5711880657   -1.9700196488   -7.3160750014
H        2.1594721057    0.2195925056   -4.3208375750
H        3.3056556921    0.9368291052   -3.1467181210
H        2.4858760466    3.0342885935   -4.0609101507
H        0.9428540394    2.2860064440   -4.5574780045
H        0.7297758825    1.6244556746   -0.8682978897
H       -1.1158039475    2.0781009712   -3.1271419164
H       -1.4998964630    1.5381917854   -1.4875238338
25   
Generated by ForceBalance from scan.xyz: Frame 14 of 24
C        0.1810804852   -2.3808496418   -5.1458076055
C       -0.2550462163   -1.7760502745   -3.9690689211
C        0.1583330128   -1.6861200089   -6.3594643392
C       -0.7387699653   -0.4623614186   -3.9759245520
C       -0.7963054438    0.2144988701   -5.2031268516
C       -0.3319852077   -0.3807553030   -6.3790524450
C        2.2834554563    1.1652674182   -3.6199493644
C        1.7635359528    2.6081443027   -3.5793215832
C        0.6977502810    1.4478511642   -1.9549024483
C       -0.7877186156    1.3741812272   -2.4024363380
O        1.5021044964    0.4859505259   -2.6218177549
O        1.2342483337    2.7230549348   -2.2485079669
O       -1.2044650879    0.0585663946   -2.7990908222
F       -1.3090844127    1.4682675590   -5.2613578750
Cl      -0.3891584803    0.5269544354   -7.8718328161
H        0.5609096280   -3.3979392184   -5.1195884992
H       -0.2081605202   -2.2908680143   -3.0152309347
H        0.5104686774   -2.1411815049   -7.2791103158
H        2.1261814854    0.6848372351   -4.5903317310
H        3.3404268967    1.0978532636   -3.3421146697
H        2.5417087286    3.3640166073   -3.6951891155
H        0.9782919329    2.7760922976   -4.3266086841
H        0.7913801976    1.2846718478   -0.8774360144
H       -0.9638022412    2.0985457087   -3.1982107367
H       -1.4328313852    1.6307082025   -1.5601500802
25   
Generated by ForceBalance from scan.xyz: Frame 15 of 24
C       -0.2405674785   -2.6285325506   -5.0889059065
C       -0.5737497480   -1.9362573994   -3.9261472582
C       -0.0145945482   -1.9473990624   -6.2875478884
C       -0.7043480440   -0.5415558788   -3.9293559653
C       -0.5087317598    0.1311964406   -5.1443802141
C       -0.1471920854   -0.5587827122   -6.3019805455
C        2.3493843593    1.7146912330   -3.7774628037
C        1.7499350033    3.0546592250   -3.3392200610
C        0.8421923658    1.4256311754   -2.0393294583
C       -0.6622584431    1.3495617224   -2.3663090273
O        1.6202077062    0.7409510371   -3.0116525710
O        1.2676894678    2.7748128164   -2.0145666206
O       -1.0898729728    0.0340854124   -2.7512041138
F       -0.6434188264    1.4810057807   -5.2091677034
Cl       0.1339036572    0.3451106759   -7.7729443989
H       -0.1418210341   -3.7096880732   -5.0607676974
H       -0.7299218401   -2.4539341079   -2.9850008043
H        0.2593998983   -2.4720039043   -7.1965001556
H        2.2065436223    1.5123473099   -4.8426162943
H        3.4132367359    1.6373052722   -3.5275584839
H        2.4810555193    3.8614206401   -3.2638056073
H        0.9286704130    3.3634793868   -3.9959254476
H        1.0487496332    0.9869432678   -1.0575014165
H       -0.9164804239    2.0871716682   -3.1272367872
H       -1.2333283330    1.5707937983   -1.4625677935
25   
Generated by ForceBalance from scan.xyz: Frame 16 of 24
C       -0.0784468813   -2.7524035093   -4.9363411241
C       -0.4834876038   -1.9497168101   -3.8699415487
C        0.0591219299   -2.2192526123   -6.2199717209
C       -0.7730200312   -0.5955465222   -4.0653437226
C       -0.6681544115   -0.0761058022   -5.3634488239
C       -0.2369742555   -0.8706349893   -6.4254693854
C        2.1694614382    1.8470552444   -4.0023209962
C        2.3146766612    2.9507917602   -2.9548454042
C        0.7849040660    1.3553186178   -2.2613672062
C       -0.6766251753    1.4244682719   -2.7157853076
O        1.6353729083    0.7638736354   -3.2286893211
O        1.2370374986    2.6893349985   -2.0393129109
O       -1.2232903269    0.1231836318   -2.9892164981
F       -0.9765640007    1.2233090544   -5.5956254231
Cl      -0.0846938316   -0.1587417703   -8.0149071107
H        0.1465014301   -3.8010894085   -4.7658768608
H       -0.5736668101   -2.3477786987   -2.8641482553
H        0.3870918484   -2.8297261170   -7.0545566382
H        1.4788300854    2.1297903244   -4.8064988263
H        3.1156734390    1.5165850757   -4.4339813116
H        3.2717360444    2.8807488606   -2.4243714337
H        2.1916893223    3.9580418091   -3.3608704701
H        0.8797889523    0.7596934440   -1.3463633819
H       -0.7697540090    2.0885729501   -3.5762695125
H       -1.2839098700    1.8217249384   -1.9001930502
25   
Generated by ForceBalance from scan.xyz: Frame 17 of 24
C       -0.2483951917   -2.8972159598   -4.8646249509
C       -0.6314873562   -2.0335306521   -3.8375600121
C       -0.0140178617   -2.4129577632   -6.1530763026
C       -0.8022871600   -0.6667695977   -4.0809321023
C       -0.5931053917   -0.1921720987   -5.3835089767
C       -0.1861442382   -1.0502534326   -6.4041550884
C        2.1545974807    2.2543193305   -4.0819443438
C        2.3515830792    3.0259339258   -2.7800879809
C        0.8647405343    1.2764630531   -2.4702909214
C       -0.6232184047    1.3932953915   -2.8001752858
O        1.6668435619    0.9933822830   -3.6072533551
O        1.2840417515    2.5399810822   -1.9515876360
O       -1.2348905958    0.1132136885   -3.0392744886
F       -0.7779644229    1.1199749947   -5.6593632370
Cl       0.0971268611   -0.3989293473   -8.0012089513
H       -0.1191633260   -3.9555870522   -4.6584638572
H       -0.8027055379   -2.3949298617   -2.8282809505
H        0.2968736840   -3.0713160660   -6.9572696217
H        1.4178036316    2.7354276328   -4.7375065547
H        3.0751700356    2.0703675944   -4.6385367870
H        3.3191731693    2.7948560621   -2.3178328686
H        2.2412415042    4.1078898709   -2.8857841279
H        1.0398717366    0.4765953856   -1.7410315579
H       -0.7735165421    2.0764298673   -3.6377549692
H       -1.1428794369    1.7851897698   -1.9239539389
25   
Generated by ForceBalance from scan.xyz: Frame 18 of 24
C       -5.2439904605    0.6948666738   -3.1693652191
C       -3.9879745738    1.0056869394   -2.6335651138
C       -5.5317706664   -0.5843742463   -3.6379509816
C       -2.9946368105    0.0222438335   -2.5624785449
C       -3.2892611272   -1.2698060700   -3.0363660895
C       -4.5395091274   -1.5698678443   -3.5666183718
C        2.1217993230    2.2027338918   -1.4893407048
C        1.5673822894    2.9558031246   -0.2644618203
C        0.0469977387    1.4319108448   -1.1047175095
C       -1.3933187864    1.4927532244   -1.5818225402
O        0.9406548115    1.7481046170   -2.1524132338
O        0.2391194385    2.4302793245   -0.1023560612
O       -1.7414104275    0.1946037569   -2.0632121424
F       -2.3344737125   -2.2151523901   -2.9650195464
Cl      -4.8571067692   -3.1872182752   -4.1410336922
H       -6.0064393715    1.4665506918   -3.2196477870
H       -3.7922027751    2.0094813937   -2.2759141813
H       -6.5030897346   -0.8296581789   -4.0538070925
H        2.6797409507    2.8341440147   -2.1827292708
H        2.7453359007    1.3493253655   -1.1898595381
H        2.1543925622    2.7700518745    0.6409402884
H        1.4933092254    4.0345604276   -0.4341473467
H        0.2753696241    0.4360368790   -0.6926661812
H       -1.4817567993    2.2463468239   -2.3717802148
H       -2.0307278767    1.7680740478   -0.7342341988
25   
Generated by ForceBalance from scan.xyz: Frame 19 of 24
C       -5.2435074172    0.7192808051   -3.2166405535
C       -3.9750091499    1.0270691986   -2.7092153476
C       -5.5764008407   -0.5801425078   -3.5901865872
C       -3.0151405883    0.0178411073   -2.5707273824
C       -3.3554837604   -1.2944772013   -2.9489492453
C       -4.6176515573   -1.5913280090   -3.4517684310
C        2.1291327426    2.3321816723   -1.4552789783
C        1.5472061886    2.8372412612   -0.1210189910
C        0.0853913663    1.4270585140   -1.2263388521
C       -1.3579880618    1.5013457042   -1.7061242383
O        0.9642611170    1.9636400549   -2.1959212142
O        0.2426779369    2.2377743100   -0.0602384881
O       -1.7535816519    0.1826644972   -2.0902495363
F       -2.4313696831   -2.2631652279   -2.8133077867
Cl      -4.9917704939   -3.2343625536   -3.9071100575
H       -5.9805038828    1.5101429596   -3.3201217773
H       -3.7440975589    2.0469827177   -2.4259816770
H       -6.5578885953   -0.8218673282   -3.9836104670
H        2.6673397195    3.0938543865   -2.0217669839
H        2.7790252559    1.4590389450   -1.3066976869
H        2.1442528905    2.5229290677    0.7412706124
H        1.4283577811    3.9253174505   -0.1028968378
H        0.3570922486    0.3853479667   -0.9950122698
H       -1.4256262858    2.1938037918   -2.5517756596
H       -1.9847865817    1.8597846130   -0.8828724614
25   
Generated by ForceBalance from scan.xyz: Frame 20 of 24
C       -5.2209153005    0.7029080528   -3.2850730193
C       -3.9428296902    1.0238810236   -2.8109270829
C       -5.5841602001   -0.6158713165   -3.5451321663
C       -3.0041447612    0.0093422813   -2.5903902027
C       -3.3758908735   -1.3222620525   -2.8544804826
C       -4.6470272785   -1.6329227447   -3.3252435862
C        2.1247222057    2.4931900506   -1.4229191221
C        1.5305674508    2.6999567027   -0.0142962935
C        0.1311040516    1.4574443653   -1.3662511871
C       -1.3111330262    1.5234118189   -1.8576068485
O        0.9777771337    2.2007886160   -2.2234667557
O        0.2455432822    2.0613724744   -0.0785689571
O       -1.7355411878    0.1860384081   -2.1330146210
F       -2.4719501823   -2.2960639239   -2.6412599401
Cl      -5.0596428206   -3.2998963413   -3.6379954166
H       -5.9409998408    1.4984217684   -3.4523669673
H       -3.6879851538    2.0587854551   -2.6168142858
H       -6.5730626135   -0.8682418392   -3.9124083522
H        2.6111371268    3.3795331723   -1.8335332797
H        2.8267349810    1.6485726200   -1.4426379770
H        2.1433245712    2.2380053275    0.7670304196
H        1.3762809380    3.7569142470    0.2243332383
H        0.4644751632    0.4091584869   -1.3155357789
H       -1.3568351544    2.1361802901   -2.7640216697
H       -1.9351956799    1.9700429167   -1.0769472901
25   
Generated by ForceBalance from scan.xyz: Frame 21 of 24
C       -5.1884927633    0.7010671730   -3.3418058420
C       -3.9015688334    1.0291317242   -2.8973702678
C       -5.5826594118   -0.6255579861   -3.4951113241
C       -2.9859866187    0.0135572025   -2.5985013960
C       -3.3883602839   -1.3260393549   -2.7556904499
C       -4.6682319513   -1.6434693482   -3.1974433507
C        2.0949820138    2.6444258315   -1.3322471462
C        1.4934430384    2.5486258605    0.0851728003
C        0.1778930881    1.4784102575   -1.4793082815
C       -1.2588608481    1.5410136270   -1.9837442988
O        0.9719766764    2.4138582478   -2.1860573602
O        0.2561205991    1.8443976328   -0.1046716922
O       -1.7109067337    0.1968555374   -2.1623101825
F       -2.5054795302   -2.3003928140   -2.4695793159
Cl      -5.1202360689   -3.3199663686   -3.3762340924
H       -5.8908849162    1.4971176593   -3.5705056849
H       -3.6219704818    2.0700138766   -2.7873463260
H       -6.5786124472   -0.8834089728   -3.8387727271
H        2.5106883517    3.6245257558   -1.5719439063
H        2.8591249527    1.8728058121   -1.4968385608
H        2.1410795272    1.9964172941    0.7743896630
H        1.2664639045    3.5309573455    0.5111621321
H        0.5779535090    0.4610164518   -1.6143403768
H       -1.2779201843    2.0774844959   -2.9385887216
H       -1.8788305716    2.0667225438   -1.2504533262
25   
Generated by ForceBalance from scan.xyz: Frame 22 of 24
C       -5.1247757302    0.6544500555   -3.1765931789
C       -3.7959345577    0.9525741636   -2.8500599919
C       -5.5785681592   -0.6611501189   -3.2227851028
C       -2.8980713639   -0.0819032590   -2.5623826686
C       -3.3609744004   -1.4102298069   -2.6114090867
C       -4.6821583712   -1.6981454927   -2.9366346774
C        2.0079165167    2.8582284792   -1.3030145991
C        1.2550749677    2.5617541333   -0.0104570879
C        0.3894813206    1.2990849571   -1.7374230470
C       -1.0751466489    1.4032669066   -2.1541064362
O        1.0810094485    2.4096785062   -2.2987474757
O        0.5717060294    1.3410485556   -0.3240404723
O       -1.5868461497    0.0729700739   -2.2369515562
F       -2.4959197784   -2.4033079295   -2.3373796827
Cl      -5.2082883012   -3.3618515060   -2.9838488971
H       -5.8126604639    1.4651418428   -3.3979095210
H       -3.4694015559    1.9853016455   -2.8238204064
H       -6.6070193512   -0.8960331040   -3.4750171134
H        2.2071633362    3.9175906143   -1.4762646988
H        2.9437579290    2.2868929213   -1.3636567751
H        1.9002437454    2.3817212492    0.8523398852
H        0.5365236278    3.3581947554    0.2256977582
H        0.8094630171    0.3505079849   -2.0972269150
H       -1.1318587544    1.8916613200   -3.1338099435
H       -1.6287440456    1.9925661662   -1.4142281731
25   
Generated by ForceBalance from scan.xyz: Frame 23 of 24
C       -5.0982492620    0.7356642732   -3.2117555989
C       -3.7531008070    1.0028501062   -2.9280623857
C       -5.6061931883   -0.5591499716   -3.1457686081
C       -2.8936802743   -0.0423501888   -2.5701640576
C       -3.4107884826   -1.3498574741   -2.5052907569
C       -4.7480467127   -1.6064882051   -2.7887821050
C        1.9000925225    2.8981271285   -1.1942824524
C        1.1291751232    2.3216473034   -0.0119816733
C        0.4646085317    1.2554299766   -1.9336183091
C       -1.0038108799    1.3904111334   -2.3182787320
O        1.1124129707    2.4685135957   -2.3124703159
O        0.6577550992    1.0749809371   -0.5370864604
O       -1.5727291520    0.0838619230   -2.2734210592
F       -2.5829272089   -2.3533295167   -2.1636194140
Cl      -5.3425379079   -3.2450096689   -2.6951423562
H       -5.7560254383    1.5542492222   -3.4886020554
H       -3.3843128101    2.0198469710   -2.9888826086
H       -6.6473543546   -0.7700999849   -3.3648642430
H        1.9477087209    3.9891677356   -1.2101975618
H        2.9129189751    2.4798024863   -1.2567018800
H        1.7437969311    2.1093394431    0.8650848698
H        0.2893603284    2.9692985616    0.2748092574
H        0.9109645474    0.3906714027   -2.4399735720
H       -1.0697145623    1.8052457898   -3.3313802561
H       -1.5086999997    2.0634025879   -1.6148225365
25   
Generated by ForceBalance from scan.xyz: Frame 24 of 24
C       -5.0118445535    0.6243052760   -3.2263869196
C       -3.6698417383    0.9428162879   -2.9833978636
C       -5.4948650052   -0.6659976343   -3.0250393944
C       -2.7873137393   -0.0441564551   -2.5290278803
C       -3.2793399315   -1.3476156369   -2.3277167572
C       -4.6136624623   -1.6553695017   -2.5717167370
C        1.8118912422    3.0359538341   -1.0735928582
C        1.0939042326    2.2272441163    0.0002419344
C        0.5517527333    1.3781170235   -2.0643453538
C       -0.9246422806    1.4391602628   -2.4430105929
O        1.0823847266    2.6879389290   -2.2583554958
O        0.7516050159    1.0274814540   -0.7031028746
O       -1.4680713190    0.1365633008   -2.2539423448
F       -2.4305784630   -2.2963317880   -1.8941537436
Cl      -5.1761637859   -3.2866387799   -2.3077379019
H       -5.6867997203    1.3986670355   -3.5788228656
H       -3.3214109107    1.9551137857   -3.1501444468
H       -6.5333290251   -0.9171925374   -3.2122087649
H        1.7469429677    4.1179721110   -0.9399738030
H        2.8628082151    2.7345923058   -1.1700234335
H        1.7219817574    1.9539368326    0.8505084247
H        0.1927076575    2.7423402402    0.3592611652
H        1.0808672798    0.6356538895   -2.6747009472
H       -1.0158718451    1.7574101205   -3.4890625717
H       -1.4321092121    2.1680576533   -1.7993288819
