21   
Generated by ForceBalance from scan.xyz: Frame 1 of 7
C        2.0221581991   -1.4009406603   -6.2944215431
C        1.2434014289   -1.5387625081   -5.0505927879
C        1.7139757857   -0.1508891911   -6.7772763253
C        0.7697624282   -0.3158728740   -4.5909728290
C        2.2855366354   -0.8045073803   -1.7302084277
C        0.5752828426    0.6397036282   -0.4974038953
C        1.2604381130    0.3212020145   -1.8295563982
O       -0.9484483240    1.0676429984   -3.1411371505
O       -0.6102014442   -1.4287336449   -2.6786441890
S        1.6943512196    0.9579838183   -5.4101181447
S       -0.0677472875   -0.1045256075   -3.0326186061
H        2.3351293152   -2.2447507309   -6.9022060190
H        0.9581765129   -2.4801520236   -4.5922278092
H        2.1043245544    0.2527480376   -7.7117197207
H        1.8062355360   -1.7311370963   -1.4027679667
H        2.7875422909   -0.9882609291   -2.6837477149
H        3.0482602950   -0.5309903732   -0.9940170996
H        0.0792600358   -0.2483930432   -0.0958177513
H       -0.1635930163    1.4358445032   -0.6098771011
H        1.3333849879    0.9654863470    0.2217779749
H        1.7103493939    1.2296863464   -2.2450118903
21   
Generated by ForceBalance from scan.xyz: Frame 2 of 7
C        1.9439075684   -1.4051105698   -6.2814457050
C        1.2025227649   -1.5479941966   -5.0522877683
C        1.7805306944   -0.1298536169   -6.7753659275
C        0.7573901323   -0.3302180952   -4.5781692538
C        2.2901594780   -0.8103816260   -1.7393127434
C        0.5923208709    0.6311396287   -0.4870403818
C        1.2657151349    0.3172901952   -1.8261473394
O       -0.9410406768    1.0788399498   -3.1319318096
O       -0.6216357103   -1.4194948654   -2.6505393922
S        1.5065876892    0.9848368576   -5.4633187216
S       -0.0725319366   -0.1026702548   -3.0185667554
H        2.2816260226   -2.2443077991   -6.8816859214
H        0.9530169260   -2.4870778816   -4.5704769147
H        2.2223238815    0.2626359797   -7.6868844757
H        1.8122523050   -1.7380253721   -1.4125603977
H        2.7854411671   -0.9895923490   -2.6970711588
H        3.0578537078   -0.5411505134   -1.0067243009
H        0.0998891333   -0.2583419941   -0.0841563624
H       -0.1474968437    1.4278477391   -0.5897028841
H        1.3566720091    0.9545033736    0.2265708156
H        1.7135797178    1.2255687778   -2.2436982772
21   
Generated by ForceBalance from scan.xyz: Frame 3 of 7
C        1.8289251165   -1.4391032651   -6.2788320786
C        1.1245651660   -1.5921647649   -5.0444325591
C        1.8061757866   -0.1382205191   -6.7260613317
C        0.7150112833   -0.3811114286   -4.5375590731
C        2.2640153772   -0.8434221520   -1.7202656893
C        0.5666192732    0.5860059054   -0.4531491932
C        1.2301541230    0.2765305062   -1.7980257676
O       -0.9864622618    1.0236104819   -3.0963491068
O       -0.6538457459   -1.4714635076   -2.5985469105
S        1.3071104185    0.9584779162   -5.4798753099
S       -0.1134157018   -0.1549171436   -2.9784005648
H        2.1802953847   -2.2693205301   -6.8829770603
H        0.8945990185   -2.5346138198   -4.5598897446
H        2.2554593789    0.2588003620   -7.6290511711
H        1.7983754689   -1.7724988195   -1.3801510635
H        2.7453960787   -1.0245728696   -2.6846872581
H        3.0410647261   -0.5637393914   -1.0015909824
H        0.0854087233   -0.3070343058   -0.0446822983
H       -0.1806267001    1.3766681739   -0.5493886139
H        1.3347820046    0.9166221851    0.2530018415
H        1.6672722429    1.1871197930   -2.2214284717
21   
Generated by ForceBalance from scan.xyz: Frame 4 of 7
C        1.7937995167   -1.4217058622   -6.3321261134
C        1.1079699160   -1.5743099836   -5.0904957765
C        1.9434457398   -0.1030854947   -6.6910587073
C        0.7623082663   -0.3628149539   -4.5427840928
C        2.2926511344   -0.8086688389   -1.7307248621
C        0.5860199551    0.6162331413   -0.4696388248
C        1.2534950409    0.3063265739   -1.8123182298
O       -0.9601987998    1.0379216876   -3.1271164788
O       -0.6203747768   -1.4525678670   -2.6083657369
S        1.2584755702    0.9788202051   -5.5283870134
S       -0.0830441858   -0.1367528520   -2.9943243897
H        2.1456992583   -2.2493559995   -6.9387841197
H        0.8612380811   -2.5179262442   -4.6164483411
H        2.4123280267    0.2961104362   -7.5821450541
H        1.8320887429   -1.7382472614   -1.3851426049
H        2.7725469281   -0.9921193438   -2.6955258349
H        3.0698917014   -0.5217833495   -1.0151160321
H        0.1090549182   -0.2780847678   -0.0590150203
H       -0.1653731889    1.4026015988   -0.5694560112
H        1.3510266589    0.9534830568    0.2367874190
H        1.6864267993    1.2172817072   -2.2388544291
21   
Generated by ForceBalance from scan.xyz: Frame 5 of 7
C        1.7317788980   -1.3946935618   -6.4049191935
C        1.0806227048   -1.5535298008   -5.1394819507
C        2.0510507183   -0.0782059629   -6.6420203192
C        0.8226742331   -0.3454798086   -4.5332785974
C        2.3265318823   -0.7716401228   -1.7222699472
C        0.5991778406    0.6381075086   -0.4705814954
C        1.2755613355    0.3321405899   -1.8093927595
O       -0.9368221042    1.0334393149   -3.1452634769
O       -0.5722370321   -1.4503454347   -2.6102852947
S        1.2275472172    0.9962146182   -5.5637802445
S       -0.0464795051   -0.1302641524   -2.9976551462
H        2.0707235876   -2.2199904914   -7.0217488231
H        0.8109229900   -2.4999279132   -4.6833853686
H        2.5468037930    0.3253677964   -7.5173789012
H        1.8766007679   -1.7036781917   -1.3694791562
H        2.8052506118   -0.9564914175   -2.6875544449
H        3.1027719820   -0.4717282643   -1.0109490067
H        0.1301687788   -0.2602052952   -0.0594938461
H       -0.1603432557    1.4160525373   -0.5756106783
H        1.3571969316    0.9857011148    0.2383441572
H        1.7000805237    1.2462058130   -2.2376053544
21   
Generated by ForceBalance from scan.xyz: Frame 6 of 7
C        1.6306258890   -1.4134791918   -6.4472372718
C        0.9856040637   -1.6016546548   -5.1713070047
C        2.1428611868   -0.1370517364   -6.5281728937
C        0.8343748499   -0.4075141858   -4.4979666691
C        2.3458199236   -0.7558687326   -1.7003715763
C        0.5873948627    0.6226875872   -0.4547542505
C        1.2635378996    0.3171010145   -1.7933439482
O       -0.9744253583    0.9328310036   -3.1301896531
O       -0.5335488910   -1.5308951913   -2.5617362789
S        1.1852968470    0.9463898837   -5.5533826255
S       -0.0476302798   -0.2008403513   -2.9681763571
H        1.9312088656   -2.2279299350   -7.0988180979
H        0.6779686287   -2.5516808205   -4.7480719757
H        2.6717765828    0.2815169781   -7.3796964016
H        1.9260489983   -1.6944916949   -1.3285190254
H        2.8179872460   -0.9426910264   -2.6687991049
H        3.1217200694   -0.4232949583   -1.0033679006
H        0.1468053470   -0.2825514715   -0.0276375865
H       -0.1948175497    1.3770509647   -0.5657600062
H        1.3393533001    1.0020733590    0.2442401362
H        1.6595459677    1.2360055241   -2.2380468414
21   
Generated by ForceBalance from scan.xyz: Frame 7 of 7
C        1.5571229497   -1.3961683358   -6.5224888289
C        0.8972052258   -1.6050391756   -5.2227678698
C        2.2259356521   -0.1992050621   -6.4057048362
C        0.8497641585   -0.4381027437   -4.4722813383
C        2.3657685471   -0.7250819979   -1.6856945612
C        0.5780628316    0.6245603975   -0.4482717899
C        1.2543697599    0.3171653253   -1.7860430413
O       -1.0107222808    0.8460471927   -3.1156067468
O       -0.4850990642   -1.5967825750   -2.5305400776
S        1.1564054974    0.9215033879   -5.5677870457
S       -0.0443496999   -0.2539039613   -2.9481722124
H        1.8261677974   -2.2017390867   -7.1989851602
H        0.5605245512   -2.5597163838   -4.8316861010
H        2.8372499344    0.2286774163   -7.2007656292
H        1.9751088445   -1.6682220680   -1.2941995157
H        2.8321921136   -0.9160660360   -2.6564230202
H        3.1402316439   -0.3601124205   -1.0034609669
H        0.1623832436   -0.2850683431   -0.0056994480
H       -0.2232521509    1.3576092398   -0.5657495708
H        1.3237955651    1.0325086249    0.2412639389
H        1.6230634363    1.2393362277   -2.2471716627
