38

C     -0.94083   -1.01779   -0.25394
C     -0.64595   -2.43143   -0.82410
C      0.45245   -0.40687   -0.02478
C      0.89219   -2.58752   -0.75377
C      1.34793   -3.99619   -0.37424
C      2.87390   -4.13809   -0.31335
C      4.98394   -8.46839   -0.38213
C      5.43252   -9.86311    0.07318
C      3.28407   -5.56868    0.03826
C      5.41854   -7.40945    0.62860
C      4.98523  -10.95745   -0.87235
N      1.28242   -1.58721    0.25464
O      5.60324   -4.80609    1.12766
O      5.59395   -5.57850   -1.31073
F      5.39369  -12.17648   -0.44190
F      3.63132  -11.00724   -0.98494
F      5.48104  -10.78597   -2.12283
S      5.09882   -5.70355    0.07319
H     -1.54775   -0.40683   -0.92760
H     -1.47597   -1.09513    0.69624
H     -1.13314   -3.20241   -0.21931
H     -1.00148   -2.55120   -1.85123
H      0.77907    0.13391   -0.93070
H      0.48034    0.29386    0.81549
H      1.31588   -2.33869   -1.74509
H      0.91211   -4.24595    0.60097
H      0.94130   -4.70611   -1.10679
H      3.28295   -3.46053    0.44142
H      3.31328   -3.86602   -1.27933
H      5.41749   -8.23386   -1.35752
H      3.89584   -8.46025   -0.49549
H      6.52301   -9.92060    0.13900
H      5.02706  -10.10854    1.05941
H      2.92590   -5.85806    1.03098
H      2.92620   -6.28420   -0.70706
H      4.93180   -7.51698    1.60246
H      6.50195   -7.41519    0.78702
H      2.27282   -1.36188    0.19376
