57

C      5.78441   -6.37942    5.73929
C     -1.04886   -7.99731    2.32526
C      5.92966   -5.33494    4.81732
C      4.50381   -6.80185    6.10659
C     -1.05747   -6.90750    1.44663
C      0.11785   -8.30428    3.03212
C      0.89030   -1.93346    0.12858
C     -0.49309   -1.91514    2.08321
C      4.80225   -4.71908    4.27007
C      3.37667   -6.18480    5.55162
C      0.09020   -6.12873    1.28004
C      1.26501   -7.52147    2.86375
C      1.75592   -2.83279    0.74204
C      0.35879   -2.83776    2.70179
C     -0.25784   -1.45643    0.78481
C      3.51360   -5.13899    4.63174
C      1.26563   -6.42585    1.98941
C      1.49701   -3.31997    2.03863
C     -1.72210    1.58801   -0.10060
C     -0.59239    0.69102   -0.67322
C     -2.04396    0.47388    0.93104
C     -1.21942   -0.53698    0.06699
C      2.29119   -4.45002    4.05923
C      2.49325   -5.54298    1.85919
C     -2.11913   -1.33983   -0.89546
C     -2.90863   -2.45665   -0.22560
N      2.38666   -4.26882    2.60964
O     -3.82387   -2.98292   -1.19835
H      6.66201   -6.85981    6.16436
H     -1.94141   -8.60485    2.45229
H      6.92305   -5.00167    4.52691
H      4.38080   -7.61405    6.81881
H     -1.95808   -6.66838    0.88613
H      0.13601   -9.15345    3.71100
H      1.11760   -1.58217   -0.87575
H     -1.37237   -1.57336    2.62374
H      4.90882   -3.91614    3.54517
H      2.38141   -6.52271    5.83253
H      0.07441   -5.28476    0.59584
H      2.17100   -7.76330    3.41461
H      2.65064   -3.16054    0.21972
H      0.10677   -3.19915    3.69262
H     -2.53474    1.74468   -0.81501
H     -1.42333    2.55930    0.30229
H     -0.51115    0.61699   -1.76254
H      0.38714    0.95012   -0.26128
H     -1.56742    0.66706    1.89605
H     -3.09900    0.23810    1.10130
H      1.39039   -5.00839    4.35849
H      2.21104   -3.45192    4.50266
H      3.37576   -6.07249    2.22539
H      2.67640   -5.30121    0.81119
H     -1.50096   -1.77574   -1.68938
H     -2.83191   -0.66364   -1.38264
H     -2.22860   -3.24042    0.13254
H     -3.45617   -2.06614    0.64535
H     -4.30285   -3.72109   -0.79156
