41

C     -7.51111    0.09999   -3.85413
C     -3.23561    0.55885   -3.31334
C     -7.85755   -0.64636   -2.72196
C     -6.92508    1.35988   -3.69426
C     -2.02313    1.17085   -2.97335
C     -3.75643   -0.44149   -2.48902
C     -7.61355   -0.13565   -1.44375
C     -6.68152    1.86311   -2.41310
C     -1.34789    0.79415   -1.80850
C     -3.07237   -0.81681   -1.32788
C     -7.02050    1.12400   -1.27099
C     -1.86806   -0.19973   -0.96254
C     -3.39345    0.85930    2.13327
C     -6.64515    1.61653    0.10919
C     -1.18963   -0.54698    0.34601
C     -4.72923    1.53980    1.85594
C     -5.26286    1.06483    0.49390
C     -1.07472    0.66013    1.30450
N     -2.32423    1.39936    1.46177
O     -3.28576   -0.12499    2.86459
H     -7.70009   -0.29473   -4.84910
H     -3.77435    0.86202   -4.20675
H     -8.31811   -1.62464   -2.83540
H     -6.65615    1.94954   -4.56736
H     -1.60513    1.94382   -3.61398
H     -4.70794   -0.90546   -2.73451
H     -7.88046   -0.72444   -0.56812
H     -6.21044    2.83730   -2.29812
H     -0.40777    1.28080   -1.55421
H     -3.49441   -1.58050   -0.67881
H     -7.38991    1.29675    0.84727
H     -6.62433    2.71267    0.12731
H     -0.17815   -0.93386    0.16789
H     -1.75187   -1.33599    0.85145
H     -4.62037    2.63145    1.86000
H     -5.41473    1.26111    2.65974
H     -5.30783   -0.02919    0.49355
H     -4.55527    1.33224   -0.29672
H     -0.75934    0.31135    2.29012
H     -0.32221    1.36772    0.94468
H     -2.54425    2.05824    0.72528
