57

C      4.66079   -2.65814    5.73380
C     -2.59287   -7.81554    3.32483
C      4.85067   -3.07348    4.41110
C      3.59315   -3.17849    6.47199
C     -2.45444   -6.75989    2.41572
C     -1.45877   -8.51477    3.74813
C      0.08422   -2.10638    2.34782
C      0.82128   -2.72927    0.15706
C      3.98315   -4.00296    3.83201
C      2.72286   -4.10341    5.88675
C     -1.19178   -6.40641    1.93431
C     -0.19545   -8.15521    3.26605
C      0.60086   -3.29703    2.86827
C      1.35332   -3.90975    0.66630
C      0.17591   -1.79813    0.98794
C      2.90998   -4.52605    4.56482
C     -0.04582   -7.10079    2.35571
C      1.24577   -4.22366    2.03548
C     -2.17386    0.45796   -0.26959
C     -1.54581    0.18942    1.12425
C     -1.18868   -0.57483   -0.87909
C     -0.32251   -0.48803    0.42172
C      1.97670   -5.56073    3.96470
C      1.33237   -6.67193    1.88261
C      0.84982    0.49682    0.22275
C      1.65262    0.79084    1.49041
N      1.81691   -5.43075    2.51859
O      2.69357    1.75034    1.26483
H      5.33319   -1.93082    6.18157
H     -3.57627   -8.09168    3.69687
H      5.67256   -2.66629    3.82734
H      3.43253   -2.85824    7.49852
H     -3.33237   -6.21357    2.07982
H     -1.55669   -9.33823    4.45123
H     -0.39688   -1.40702    3.02715
H      0.92570   -2.51864   -0.90534
H      4.11961   -4.31506    2.80097
H      1.88507   -4.49432    6.46180
H     -1.09290   -5.58318    1.23214
H      0.68409   -8.70194    3.60122
H      0.49800   -3.48962    3.92919
H      1.87563   -4.59083    0.00002
H     -1.98755    1.47506   -0.62562
H     -3.24070    0.24529   -0.37765
H     -1.34030    1.05686    1.75916
H     -2.13348   -0.53167    1.69879
H     -1.64518   -1.56249   -0.99077
H     -0.69234   -0.30622   -1.81740
H      2.40188   -6.55601    4.14053
H      1.01535   -5.54944    4.50221
H      2.06117   -7.46119    2.09494
H      1.32816   -6.52482    0.80170
H      0.45449    1.44217   -0.17758
H      1.53358    0.09628   -0.53520
H      0.98780    1.12724    2.29990
H      2.16022   -0.11001    1.83944
H      2.27985    2.57431    0.96387
