30   

C       -1.4854496673    0.9634569590    0.9076648450
C       -1.2341565898   -0.2557730131    1.5397196370
C       -0.5037058260    1.5386456489    0.0991574438
C        5.5528355483    1.2263096670   -1.2597804319
C       -0.0016993567   -0.8969106170    1.3688503563
C        0.7285132694    0.8985446091   -0.0723263906
C        5.1995653061    0.0113284945   -1.8384494254
C        4.8896723899    1.6546003995   -0.1147636245
C        1.0067420072   -0.3261700446    0.5726806518
C        3.4642495892   -0.3164043582   -0.1651246874
C        4.1827640179   -0.7788849854   -1.2957702847
C        3.8575027992    0.8967287187    0.4419743465
C        2.2913810884   -1.0575555883    0.3842140039
C        3.8259364381   -3.1611583676   -1.1471085286
C        3.5598033903   -3.1145705848    0.3600485430
N        2.3393171136   -2.3409428328    0.6754395251
N        3.9382354804   -2.0142883986   -1.8967849591
O        3.9824480336   -4.2220751413   -1.7310545913
F        3.2554269447    1.3460256220    1.5678909373
H       -2.4412434034    1.4580466668    1.0395461134
H       -1.9960911472   -0.7101709675    2.1628122779
H       -0.6985470560    2.4799548385   -0.4020480480
H        6.3487013219    1.8259583668   -1.6892912322
H        0.1592921095   -1.8455300335    1.8701540610
H        1.4601590319    1.3604467608   -0.7250841618
H        5.7387436145   -0.3302956431   -2.7145526580
H        5.1701039341    2.5883987227    0.3580412893
H        3.4378081744   -4.1412079489    0.7163536543
H        4.4288073944   -2.6890522372    0.8697743970
H        4.2578055461   -2.1997577583   -2.8387604137
30   

C       -1.4479567037    1.0163146227    0.9392905084
C       -1.1304369966   -0.1085336765    1.7044524482
C       -0.5603878253    1.4587881553   -0.0441766659
C        5.5529696237    1.2402756037   -1.1688076186
C        0.0729570879   -0.7897681393    1.4875012855
C        0.6425579004    0.7778032612   -0.2605654759
C        5.2415843007    0.0296099840   -1.7791362947
C        4.8295066403    1.6471573977   -0.0532962807
C        0.9777853201   -0.3570938044    0.5053286860
C        3.4370081711   -0.3438618499   -0.1901524682
C        4.2097049354   -0.7797012458   -1.2961179551
C        3.7816769371    0.8705277364    0.4450477887
C        2.2481215831   -1.1034158293    0.2910800637
C        3.8355683237   -3.1682462711   -1.2352281567
C        3.4986721350   -3.1685023474    0.2576073391
N        2.2729852315   -2.3937338952    0.5478947730
N        3.9980394246   -1.9997425125   -1.9402435057
O        4.0098046858   -4.2111107075   -1.8459847519
F        3.1218680769    1.3034412277    1.5447164903
H       -2.3811000733    1.5423251453    1.1068893766
H       -1.8174070317   -0.4568560416    2.4673167108
H       -0.8048847144    2.3290111338   -0.6426238207
H        6.3606993317    1.8548959323   -1.5525382961
H        0.2991933201   -1.6620182323    2.0918488898
H        1.3134055056    1.1322467294   -1.0353745066
H        5.8234835421   -0.2919055005   -2.6352813934
H        5.0738280716    2.5793752696    0.4421041926
H        3.3520323596   -4.2052822162    0.5729378676
H        4.3474182650   -2.7696568501    0.8202498427
H        4.3615301160   -2.1589749578   -2.8710543333
30   

C       -1.4080196944    1.0523477992    0.9474830605
C       -0.9993840147    0.0430000246    1.8235619905
C       -0.6373294707    1.3465879733   -0.1803386160
C        5.5647430280    1.2492399525   -1.0697716731
C        0.1766908086   -0.6726767159    1.5705439685
C        0.5382038214    0.6303893153   -0.4314264322
C        5.2886595283    0.0489618152   -1.7159582447
C        4.7894242671    1.6307210838    0.0191625367
C        0.9550072189   -0.3946449240    0.4381513116
C        3.4220056168   -0.3697718904   -0.2112912901
C        4.2425910502   -0.7763596426   -1.2943038735
C        3.7269023768    0.8380621408    0.4574801040
C        2.2192823203   -1.1462883211    0.2003763477
C        3.8577870091   -3.1673722473   -1.3252331613
C        3.4581688229   -3.2159916473    0.1506817296
N        2.2274610890   -2.4423651028    0.4212999599
N        4.0611384644   -1.9776572065   -1.9819778848
O        4.0499601433   -4.1901887081   -1.9638165896
F        3.0181545355    1.2502443572    1.5343559747
H       -2.3195858449    1.6058049093    1.1430523809
H       -1.5931741930   -0.1870675781    2.7008615302
H       -0.9498529428    2.1302199397   -0.8611099707
H        6.3834912382    1.8767096516   -1.4064253051
H        0.4846194134   -1.4526878235    2.2589334443
H        1.1292070504    0.8694830318   -1.3088875153
H        5.9080327144   -0.2505285251   -2.5535839249
H        5.0035648905    2.5560941239    0.5406418511
H        3.2922281856   -4.2619416352    0.4233150316
H        4.2859739943   -2.8440970311    0.7609335643
H        4.4643681084   -2.1090526647   -2.9007115100
30   

C       -1.3746514589    1.0758045960    0.9324058359
C       -0.8515927961    0.2233017051    1.9089081682
C       -0.7361988126    1.1874669888   -0.3057867005
C        5.5859744656    1.2530609722   -0.9538267667
C        0.3055413916   -0.5188820414    1.6451010390
C        0.4204532563    0.4442042883   -0.5661711253
C        5.3296190176    0.0716231583   -1.6408520762
C        4.7787831592    1.6039731128    0.1217446039
C        0.9461565219   -0.4278208822    0.4029578978
C        3.4219240389   -0.3918800853   -0.2007514707
C        4.2726854884   -0.7654884611   -1.2729909515
C        3.7050633820    0.7992552625    0.5078701505
C        2.2093964419   -1.1829946519    0.1494472314
C        3.8785600871   -3.1541959080   -1.4019698055
C        3.4354037286   -3.2565768195    0.0583517438
N        2.2028350666   -2.4848504854    0.3249489943
N        4.1090552825   -1.9421829732   -2.0066541399
O        4.0822827570   -4.1531107218   -2.0738963609
F        2.9680321287    1.1848786392    1.5751665104
H       -2.2711413952    1.6505603950    1.1360416331
H       -1.3408634069    0.1370211595    2.8723941605
H       -1.1355492532    1.8513913746   -1.0640358701
H        6.4129769797    1.8902802566   -1.2494474277
H        0.7086348767   -1.1750341885    2.4091235781
H        0.9148667760    0.5426024028   -1.5265200554
H        5.9721421827   -0.2029846753   -2.4695048826
H        4.9760174937    2.5153387862    0.6736342283
H        3.2548048626   -4.3110159852    0.2851797883
H        4.2477477667   -2.9151177995    0.7059851257
H        4.5385340055   -2.0421880190   -2.9174258261
30   

C       -1.3916776695    1.0869786153    0.8892939572
C       -0.7309605669    0.4670977515    1.9534269476
C       -0.8886675777    0.9585193640   -0.4079758792
C        5.6274700046    1.2245429903   -0.8277635862
C        0.4282221942   -0.2815938622    1.7183203077
C        0.2705476306    0.2090764062   -0.6375329535
C        5.3444619551    0.0817796746   -1.5668217422
C        4.8311092323    1.5415940965    0.2657062732
C        0.9367403781   -0.4283160278    0.4227237435
C        3.4308166150   -0.4093865093   -0.1413538925
C        4.2715070530   -0.7493706108   -1.2335837541
C        3.7417598289    0.7426650172    0.6189769500
C        2.2006859716   -1.1926485338    0.1667090963
C        3.8312839745   -3.1212432541   -1.4766306730
C        3.3800951533   -3.2848888239   -0.0245679898
N        2.1621536901   -2.5007879326    0.2705528843
N        4.0823494633   -1.8858078000   -2.0227714514
O        4.0180399396   -4.0901705165   -2.1957423444
F        3.0205463919    1.0968931122    1.7064060384
H       -2.2901849262    1.6662963757    1.0698187243
H       -1.1153221915    0.5659182387    2.9622006424
H       -1.3955291809    1.4397112236   -1.2367089328
H        6.4661276612    1.8579845123   -1.0975002369
H        0.9371390808   -0.7580791482    2.5491850430
H        0.6582333083    0.1178485080   -1.6463833990
H        5.9781053259   -0.1669356403   -2.4103400618
H        5.0489249735    2.4225998913    0.8576809600
H        3.1761411846   -4.3449151719    0.1505232070
H        4.1958545561   -2.9913651733    0.6419643363
H        4.5098131772   -1.9500424325   -2.9377093171
30   

C       -1.2749173224    0.7195761425    0.6763969277
C       -0.4807091223    0.4407226137    1.7910274833
C       -0.8366929306    0.3437830433   -0.5949560637
C        5.8629401601    1.3333159735   -0.7000652637
C        0.7486887373   -0.2099599020    1.6321441983
C        0.3933071375   -0.3055744227   -0.7464269117
C        5.5994202969    0.2441961713   -1.5210353997
C        5.0835581390    1.5337791406    0.4315784213
C        1.2052906993   -0.5911517019    0.3652192855
C        3.7296417080   -0.4215961943   -0.1028574088
C        4.5609081524   -0.6454843316   -1.2335428431
C        4.0275495694    0.6743619771    0.7422025467
C        2.5272318271   -1.2719643713    0.1447278193
C        4.2256309862   -3.0085347731   -1.6420400389
C        3.7892460518   -3.2941870876   -0.2044860634
N        2.5376968418   -2.5846372596    0.1340294110
N        4.3994504265   -1.7260515816   -2.1034190580
O        4.4562690969   -3.9142212395   -2.4277868835
F        3.3335549369    0.9184130827    1.8739183669
H       -2.2284632960    1.2210979654    0.7978634737
H       -0.8185074306    0.7235451601    2.7815121498
H       -1.4493085554    0.5528375183   -1.4646073603
H        6.6746662336    2.0138584076   -0.9352457416
H        1.3423307033   -0.4372392625    2.5104426852
H        0.7251297645   -0.5954741080   -1.7376562404
H        6.2221665083    0.0834204241   -2.3935178955
H        5.2893009866    2.3702918444    1.0888251825
H        3.6313795126   -4.3715891726   -0.1036278442
H        4.5920046278   -3.0105021997    0.4818086742
H        4.8163815528   -1.7047162533   -3.0251829014
30   

C       -1.3051611587    0.6953301482    0.5625808365
C       -0.4303057530    0.7247489059    1.6494538843
C       -0.9341119642    0.0198658608   -0.5996823150
C        5.9230809060    1.3024173391   -0.5798964632
C        0.8148485308    0.0883425282    1.5708807315
C        0.3112416222   -0.6123690132   -0.6717403800
C        5.5590143397    0.3103056620   -1.4807244067
C        5.2456551167    1.4014520119    0.6281011189
C        1.2153879045   -0.5823349093    0.4074991836
C        3.7654880521   -0.4308156642    0.0001048458
C        4.5119771458   -0.5713174353   -1.2010169140
C        4.1846278493    0.5459018316    0.9340781582
C        2.5418808964   -1.2651962186    0.2249849833
C        4.1328261692   -2.8918802279   -1.7479466284
C        3.7603263435   -3.2714686607   -0.3124295738
N        2.5287145359   -2.5739395192    0.1134392650
N        4.2694075592   -1.5797056368   -2.1362034526
O        4.3268437941   -3.7442782976   -2.6004002679
F        3.6198624637    0.6665327900    2.1514672763
H       -2.2706351897    1.1848093752    0.6244528588
H       -0.7210832633    1.2309860232    2.5629284002
H       -1.6100845309   -0.0179148350   -1.4464255261
H        6.7400597756    1.9787286936   -0.8090458025
H        1.4303381530    0.0886771512    2.4587707423
H        0.5872100882   -1.1362423941   -1.5809639139
H        6.1125151925    0.2151431757   -2.4077987646
H        5.5406996939    2.1511301644    1.3526512592
H        3.5958451247   -4.3519329005   -0.2748280428
H        4.5930165962   -3.0368092048    0.3566225704
H        4.6342085269   -1.4980925551   -3.0764900894
30   

C       -1.3625089167    0.6233422758    0.5240598071
C       -0.3881175683    0.9395206581    1.4703368193
C       -1.0663488500   -0.2914055222   -0.4843305680
C        5.9468423269    1.3164322469   -0.4267224135
C        0.8805870571    0.3491092431    1.4055235977
C        0.2015117396   -0.8777169735   -0.5442844551
C        5.5133829600    0.4476387979   -1.4217473481
C        5.3468354211    1.2665824815    0.8267374684
C        1.2103537855   -0.5631871582    0.3913634498
C        3.7753018618   -0.4187882330    0.0482782042
C        4.4619223490   -0.4423222337   -1.1911358403
C        4.2842844941    0.3958270932    1.0824581826
C        2.5378759208   -1.2458880739    0.2399356253
C        4.0633446480   -2.7106972771   -1.8922528536
C        3.7487706712   -3.1995614347   -0.4722570616
N        2.5262810934   -2.5458535998    0.0429013731
N        4.1712918855   -1.3707203272   -2.1925704154
O        4.2301328036   -3.4983961719   -2.8102367252
F        3.8123721802    0.3195772792    2.3448001544
H       -2.3445889105    1.0798812579    0.5757396621
H       -0.6164606725    1.6415533943    2.2642726425
H       -1.8176881267   -0.5514618319   -1.2213778641
H        6.7668220412    2.0011556355   -0.6168993563
H        1.5747777428    0.6201617119    2.1833148096
H        0.4101446522   -1.5907014273   -1.3353612756
H        6.0202599726    0.4488320504   -2.3798411854
H        5.7099854573    1.9023590394    1.6253859685
H        3.5939149804   -4.2815464459   -0.5068898923
H        4.6031091555   -3.0056806365    0.1825787233
H        4.4988628547   -1.2184202121   -3.1377161680
30   

C       -1.3953840462    0.5925440046    0.5638237479
C       -0.3302352745    1.1088880160    1.2999667577
C       -1.1811346850   -0.4974080491   -0.2763564977
C        5.9682367027    1.3169305263   -0.2931120229
C        0.9455428988    0.5403426082    1.1948234301
C        0.0938543688   -1.0624114063   -0.3772738421
C        5.5344094247    0.5144055758   -1.3435632414
C        5.3546231306    1.2007044979    0.9505768418
C        1.1951930337   -0.5529891977    0.3490428314
C        3.7675022691   -0.4052246380    0.0524995867
C        4.4685577105   -0.3724481314   -1.1760301791
C        4.2765556225    0.3322965021    1.1412332600
C        2.5225424563   -1.2307163947    0.1990942365
C        4.0686036371   -2.6046111887   -1.9747993199
C        3.7524361809   -3.1510448634   -0.5747127032
N        2.5242452434   -2.5254250257   -0.0369213213
N        4.1827792122   -1.2533611199   -2.2201465781
O        4.2368899987   -3.3552799793   -2.9230888379
F        3.7789201202    0.1807464486    2.3896761551
H       -2.3825248175    1.0335999043    0.6451177713
H       -0.4908708004    1.9559769221    1.9572008593
H       -2.0019191203   -0.9105717667   -0.8516898351
H        6.8004193123    1.9989146465   -0.4337456516
H        1.7216074539    0.9975604034    1.7868067699
H        0.2275002005   -1.9128751874   -1.0378661740
H        6.0538989254    0.5616286700   -2.2937170373
H        5.7191489694    1.7804811850    1.7901745928
H        3.6042134022   -4.2317049559   -0.6524562435
H        4.6038622935   -2.9790512656    0.0899755312
H        4.5168880616   -1.0619795868   -3.1558355464
30   

C       -1.4013460095    0.6020698448    0.6177994427
C       -0.2712514626    1.2484955787    1.1151513066
C       -1.2580971316   -0.6192116270   -0.0359369937
C        5.9829393011    1.3016239067   -0.1745743156
C        0.9979020472    0.6771238559    0.9595581623
C        0.0105147035   -1.1873411078   -0.1882292089
C        5.5796049334    0.5336740254   -1.2628597323
C        5.3173629426    1.1646530560    1.0401716475
C        1.1767213221   -0.5509647835    0.3009932529
C        3.7504551548   -0.3999427001    0.0392127777
C        4.4971496768   -0.3432090958   -1.1608125207
C        4.2208436118    0.3077771861    1.1644246091
C        2.5016625607   -1.2251632483    0.1332735185
C        4.1046176006   -2.5465404184   -2.0356938960
C        3.7521176814   -3.1282378552   -0.6588440242
N        2.5127350707   -2.5148090743   -0.1321465750
N        4.2388702723   -1.1905114381   -2.2388224982
O        4.2928099034   -3.2722649384   -2.9995575002
F        3.6488381679    0.1502397525    2.3812430701
H       -2.3835153974    1.0454657475    0.7375041767
H       -0.3756424518    2.2009419736    1.6223543677
H       -2.1295588699   -1.1324432733   -0.4265156881
H        6.8291171565    1.9749401016   -0.2643956148
H        1.8282619042    1.2454603776    1.3499595605
H        0.0807261358   -2.1413339054   -0.7002585036
H        6.1360170408    0.5992846826   -2.1907744816
H        5.6523779387    1.7211212902    1.9074275459
H        3.6040526743   -4.2060786998   -0.7690384333
H        4.5876412966   -2.9766135562    0.0304970647
H        4.6018507292   -0.9749334579   -3.1583576524
30   

C       -1.3883054330    0.6303816573    0.6684342426
C       -0.2218460270    1.3520084882    0.9164629972
C       -1.2969222041   -0.6830131837    0.2135499927
C        5.9871165380    1.2652443970   -0.0644505052
C        1.0321794345    0.7632588111    0.7118254896
C       -0.0433015790   -1.2687769476    0.0110985030
C        5.6288852652    0.5164345205   -1.1815424287
C        5.2559187335    1.1277190341    1.1116156694
C        1.1572832009   -0.5583686788    0.2527167738
C        3.7284524726   -0.4144806634    0.0166424526
C        4.5319507081   -0.3479800266   -1.1462783770
C        4.1434908022    0.2849390612    1.1693195587
C        2.4754256581   -1.2336682763    0.0526186938
C        4.1432380664   -2.5223289565   -2.0948394454
C        3.7323961473   -3.1320832645   -0.7477994355
N        2.4839596472   -2.5162821028   -0.2460087522
N        4.3106681358   -1.1650821405   -2.2551506363
O        4.3575592021   -3.2261345295   -3.0694413546
F        3.4859946607    0.1475785897    2.3448119260
H       -2.3589214471    1.0871244362    0.8261505761
H       -0.2865278737    2.3762978992    1.2656485485
H       -2.1972695142   -1.2541270644    0.0171046921
H        6.8452123028    1.9283058452   -0.1030099880
H        1.8928856297    1.3894690512    0.8988862249
H       -0.0149179743   -2.2950594618   -0.3395322711
H        6.2308089823    0.5885058954   -2.0801229942
H        5.5480805587    1.6759654054    1.9994096486
H        3.5745252321   -4.2046225465   -0.8910531543
H        4.5450275583   -3.0100410098   -0.0260195870
H        4.7143403202   -0.9317744981   -3.1531535726
30   

C       -1.3666754547    0.6558655505    0.7264520968
C       -0.1966050876    1.4144007141    0.7282205314
C       -1.2970179195   -0.7120772243    0.4692624722
C        5.9774102031    1.2272844184    0.0311075896
C        1.0397534285    0.8075293991    0.4757963760
C       -0.0606965198   -1.3159278838    0.2182129382
C        5.6694266600    0.4891364307   -1.1077300027
C        5.1817347386    1.0958375138    1.1648332763
C        1.1405478513   -0.5688355882    0.2159807932
C        3.7055330177   -0.4373717280   -0.0122069439
C        4.5638132749   -0.3647567432   -1.1360101288
C        4.0597434584    0.2642999597    1.1603424779
C        2.4475223083   -1.2448981690   -0.0352086912
C        4.1704814892   -2.5062135974   -2.1634553585
C        3.6947346865   -3.1441375445   -0.8530102071
N        2.4432282865   -2.5174969380   -0.3735288061
N        4.3811215718   -1.1509840212   -2.2739575980
O        4.4066297993   -3.1859350069   -3.1500155169
F        3.3293372282    0.1457699646    2.2938345548
H       -2.3240178790    1.1262213727    0.9209569082
H       -0.2455320166    2.4800116822    0.9214091029
H       -2.2007815558   -1.3108617998    0.4642286428
H        6.8428557233    1.8817962080    0.0410449096
H        1.9088944324    1.4523310809    0.4651589817
H       -0.0443421206   -2.3835744274    0.0261719078
H        6.3155496163    0.5642405984   -1.9748278100
H        5.4284342296    1.6419974935    2.0676124355
H        3.5193111614   -4.2080824076   -1.0347825461
H        4.4830554290   -3.0626967520   -0.0992970100
H        4.8270607619   -0.9016413243   -3.1473337356
30   

C       -1.3429743445    0.6747019644    0.7788438611
C       -0.2022164616    1.4436071467    0.5455430459
C       -1.2602965369   -0.7161632370    0.7161044263
C        5.9605388784    1.1976762608    0.1148702903
C        1.0184729035    0.8235883441    0.2530448900
C       -0.0392795287   -1.3331217228    0.4242619648
C        5.6995578206    0.4684049677   -1.0410560227
C        5.1088830303    1.0719601360    1.2073481318
C        1.1291328790   -0.5746078033    0.1911146548
C        3.6845206585   -0.4559019296   -0.0397823521
C        4.5897519357   -0.3764184678   -1.1268093955
C        3.9819066881    0.2497284998    1.1470054675
C        2.4217998663   -1.2480046602   -0.1205837588
C        4.1846864849   -2.4796944519   -2.2377649417
C        3.6486950251   -3.1475975174   -0.9678256376
N        2.3993834983   -2.5080184159   -0.5008541653
N        4.4420521284   -1.1299933325   -2.2919319857
O        4.4346836437   -3.1314684510   -3.2396223608
F        3.1942199807    0.1433539994    2.2425923135
H       -2.2887789160    1.1545951895    1.0040252284
H       -0.2627907821    2.5252037829    0.5864822693
H       -2.1421461877   -1.3215648784    0.8925829355
H        6.8297524004    1.8450099298    0.1687056508
H        1.8735546971    1.4601679350    0.0585674453
H       -0.0039650303   -2.4166992751    0.3822248466
H        6.3835518106    0.5470979155   -1.8782783232
H        5.3141758332    1.6162899220    2.1215319748
H        3.4527898034   -4.1996631619   -1.1927588297
H        4.4146463916   -3.1136047216   -0.1879219101
H        4.9254155791   -0.8643403756   -3.1402509599
30   

C       -1.3258188656    0.6897532974    0.8275279662
C       -0.2425821021    1.4405038582    0.3661334281
C       -1.1988097243   -0.6934571466    0.9663569347
C        5.9463827005    1.1518969203    0.2131721576
C        0.9659650511    0.8097103227    0.0480803237
C        0.0102744800   -1.3213091387    0.6483071633
C        5.7239193673    0.4295148018   -0.9547458405
C        5.0471694529    1.0369087237    1.2675363216
C        1.1181926578   -0.5779453543    0.1932471059
C        3.6627337429   -0.4808333631   -0.0367872791
C        4.6087213961   -0.4018730110   -1.0896222895
C        3.9141332524    0.2282139842    1.1594328042
C        2.3944551000   -1.2527502402   -0.1713677642
C        4.1865383860   -2.4686314859   -2.2722605193
C        3.5941555820   -3.1580667151   -1.0407631291
N        2.3504091381   -2.5011039465   -0.5840933583
N        4.4905332942   -1.1281933422   -2.2756282385
O        4.4459793854   -3.0965849536   -3.2868097274
F        3.0802259221    0.1367988630    2.2216380773
H       -2.2627949261    1.1773229696    1.0722367557
H       -0.3394756227    2.5139143095    0.2496304816
H       -2.0374977358   -1.2837456575    1.3176778303
H        6.8199858395    1.7889925762    0.3046700252
H        1.7851464317    1.4159629784   -0.3224204639
H        0.0888487475   -2.3980525367    0.7563074810
H        6.4404176150    0.5064740776   -1.7644828445
H        5.2187320263    1.5799380355    2.1894051692
H        3.3764599436   -4.1967904899   -1.3044027000
H        4.3385516234   -3.1703025925   -0.2396771595
H        5.0080329038   -0.8527295668   -3.1003818004
30   

C       -1.3046330146    0.6989602682    0.8457331423
C       -0.3092788061    1.4099367491    0.1702007303
C       -1.0972395012   -0.6433394383    1.1725696448
C        5.9614732695    1.1062704694    0.2981798017
C        0.8932033564    0.7807096556   -0.1727417035
C        0.1057531178   -1.2697547195    0.8289733705
C        5.7649611560    0.4110741144   -0.8903529826
C        5.0254037155    0.9884173704    1.3191245245
C        1.1242359914   -0.5607883036    0.1655193635
C        3.6625071069   -0.4870004501   -0.0558214265
C        4.6411742452   -0.3982351897   -1.0784190157
C        3.8834516000    0.2011600064    1.1593805946
C        2.3878584588   -1.2329274708   -0.2481526963
C        4.2005237085   -2.4127236974   -2.3492410019
C        3.5593127436   -3.1334652603   -1.1618023172
N        2.3227951178   -2.4643635829   -0.7038323341
N        4.5443204437   -1.0836139729   -2.2907568080
O        4.4674122360   -3.0066834716   -3.3821259504
F        3.0153280156    0.1091609589    2.1937211038
H       -2.2372973956    1.1847197079    1.1097212841
H       -0.4707026155    2.4490640555   -0.0930932546
H       -1.8696282924   -1.2029322227    1.6878247613
H        6.8417093740    1.7268126556    0.4305445964
H        1.6502888600    1.3434265837   -0.7081067616
H        0.2526271437   -2.3160370527    1.0754766617
H        6.5073314808    0.4943560199   -1.6757739618
H        5.1741372361    1.5130832095    2.2554634034
H        3.3211012568   -4.1544524854   -1.4728007142
H        4.2840106402   -3.1986718131   -0.3453997322
H        5.0913878684   -0.7917866232   -3.0904439556
30   

C       -1.3150897699    0.7057049923    0.8560806770
C       -0.4309263763    1.3345404569   -0.0254429987
C       -0.9981885295   -0.5512240731    1.3786948925
C        5.9757530160    1.0336771288    0.4057141907
C        0.7711076543    0.7097294566   -0.3780236384
C        0.2041418139   -1.1732930569    1.0246652161
C        5.7914924944    0.3727486294   -0.8038405754
C        5.0139894475    0.9117913798    1.4016350183
C        1.1110176950   -0.5398070123    0.1575497092
C        3.6531758908   -0.5034982204   -0.0379993061
C        4.6554690461   -0.4071121656   -1.0374665933
C        3.8597385086    0.1531814808    1.1975257130
C        2.3687059663   -1.2163693691   -0.2797109710
C        4.1913362208   -2.3670104320   -2.3868406623
C        3.5085567285   -3.1124899629   -1.2390892685
N        2.2813702355   -2.4288238152   -0.7781080049
N        4.5695794678   -1.0511120912   -2.2733180563
O        4.4619408832   -2.9298616579   -3.4360290476
F        2.9683923186    0.0574812963    2.2113550080
H       -2.2476218814    1.1875027420    1.1276759120
H       -0.6791135476    2.3045664695   -0.4409377823
H       -1.6858781118   -1.0485629931    2.0531669952
H        6.8652583228    1.6321446258    0.5730248830
H        1.4443046932    1.2003683761   -1.0726897824
H        0.4385340841   -2.1561966292    1.4191454819
H        6.5523256134    0.4611705222   -1.5707951310
H        5.1515771199    1.4115511452    2.3531568647
H        3.2499379769   -4.1147917999   -1.5918133662
H        4.2156960104   -3.2267628427   -0.4127725889
H        5.1405717980   -0.7461989624   -3.0511086307
30   

C       -1.3380820264    0.7475586136    0.8333241096
C       -0.5734162828    1.2320261274   -0.2323596000
C       -0.9009375922   -0.3694988533    1.5512487245
C        5.9911152349    0.9683623451    0.5318685757
C        0.6306379848    0.6048018914   -0.5737384607
C        0.3028270933   -0.9947172111    1.2075533520
C        5.8052676631    0.3605433462   -0.7046401368
C        5.0193894774    0.8227412275    1.5144656039
C        1.0910485077   -0.4983622295    0.1556522339
C        3.6456737061   -0.5101658929    0.0090855299
C        4.6580371860   -0.3892654088   -0.9783583976
C        3.8538601216    0.0933530171    1.2712674066
C        2.3503728990   -1.1873814446   -0.2767086218
C        4.1722138825   -2.2801348433   -2.4165333657
C        3.4607073344   -3.0606912014   -1.3106840902
N        2.2426275050   -2.3703711251   -0.8363034710
N        4.5718735710   -0.9774292085   -2.2418926312
O        4.4438305206   -2.8014248578   -3.4867229648
F        2.9551129076   -0.0262794393    2.2750694200
H       -2.2719678698    1.2312067911    1.0968673576
H       -0.9163325560    2.0903118559   -0.7988958652
H       -1.4968250413   -0.7565936920    2.3699245677
H        6.8889472766    1.5446271998    0.7297758938
H        1.2109308419    0.9777419548   -1.4107739540
H        0.6309903401   -1.8717470624    1.7547294250
H        6.5732259666    0.4678733670   -1.4620048432
H        5.1576407009    1.2816590781    2.4862323955
H        3.1853939077   -4.0408202997   -1.7100137759
H        4.1547974693   -3.2255443555   -0.4818719221
H        5.1561359086   -0.6493655029   -3.0001606166
30   

C       -1.3592837834    0.7318281092    0.7412166557
C       -0.7068330522    0.9998997257   -0.4659975027
C       -0.8052419081   -0.1813208684    1.6432703211
C        6.0146301934    0.8814941777    0.6285560763
C        0.5047877718    0.3655113329   -0.7641132626
C        0.4053321197   -0.8158824885    1.3427803795
C        5.8049791034    0.3500780100   -0.6381856560
C        5.0630962575    0.6724414769    1.6186491966
C        1.0873620597   -0.5235980986    0.1491803092
C        3.6572194063   -0.5665734835    0.0614889492
C        4.6532724261   -0.3838356846   -0.9346528899
C        3.8929819470   -0.0423777953    1.3542806299
C        2.3549684202   -1.2225114471   -0.2563019269
C        4.1617314015   -2.1933390118   -2.4691868675
C        3.4562562858   -3.0332230408   -1.4038326991
N        2.2406256826   -2.3635777840   -0.8955476034
N        4.5483755928   -0.8970927524   -2.2291686638
O        4.4305494907   -2.6553706953   -3.5669667501
F        3.0214638736   -0.2253685327    2.3700710508
H       -2.2983180340    1.2220973048    0.9722643874
H       -1.1425821478    1.6946754367   -1.1749746196
H       -1.3169174389   -0.4050071414    2.5724220723
H        6.9154446805    1.4468000667    0.8437502730
H        0.9968043508    0.5658101944   -1.7098795420
H        0.8150293817   -1.5431783887    2.0349200315
H        6.5579894507    0.5049070813   -1.4023099868
H        5.2211190032    1.0701167244    2.6141005322
H        3.1785341669   -3.9905472263   -1.8536061786
H        4.1523899673   -3.2406759513   -0.5863813055
H        5.1221316098   -0.5236836650   -2.9743605771
30   

C       -1.3743743781    0.7201761711    0.6212146095
C       -0.8269817646    0.7176001080   -0.6641960533
C       -0.7135103596    0.0563802641    1.6581146941
C        6.0545231184    0.7935952703    0.6739234278
C        0.3906604434    0.0718642845   -0.9058593123
C        0.5029540440   -0.5923684245    1.4155291248
C        5.7823690644    0.3795629653   -0.6233673316
C        5.1635825050    0.4708192903    1.6887207929
C        1.0926369648   -0.5527874913    0.1381022851
C        3.6785600564   -0.6269425460    0.0971031487
C        4.6244266525   -0.3417357783   -0.9250507269
C        3.9881746899   -0.2346692743    1.4209643234
C        2.3643464633   -1.2594825517   -0.2413071938
C        4.1225817742   -2.0491007800   -2.5602320632
C        3.4617457621   -2.9719545769   -1.5345142632
N        2.2481124233   -2.3499954311   -0.9647122878
N        4.4683866963   -0.7556921924   -2.2495937612
O        4.3757726545   -2.4333235339   -3.6912322421
F        3.1949680004   -0.5433516565    2.4662303045
H       -2.3176096974    1.2205392386    0.8096398545
H       -1.3480044576    1.2110334844   -1.4768033972
H       -1.1510051680    0.0305477678    2.6496698704
H        6.9594268633    1.3505790238    0.8936423979
H        0.7993196264    0.0621569618   -1.9109262002
H        0.9566986923   -1.1507900471    2.2236202903
H        6.4926846270    0.6136662471   -1.4079358439
H        5.3757254962    0.7686150928    2.7087011167
H        3.1883092391   -3.9033557992   -2.0380898153
H        4.1799662463   -3.2167812089   -0.7470061527
H        5.0059827016   -0.3170757059   -2.9861488190
30   

C       -1.3457799383    0.7960249789    0.5082822541
C       -0.9576197105    0.4088690772   -0.7749736794
C       -0.5347625097    0.4817739232    1.6001697532
C        6.0158710143    0.6980364631    0.7981090518
C        0.2400330362   -0.2886128289   -0.9646328797
C        0.6642560246   -0.2163798351    1.4124874416
C        5.6760261397    0.4816799082   -0.5326810080
C        5.2211508187    0.1509173787    1.7997065993
C        1.0719711900   -0.6146682061    0.1226275039
C        3.6612515128   -0.7072596182    0.1432063242
C        4.5313102110   -0.2423404016   -0.8736555037
C        4.0626629676   -0.5657535593    1.4884966834
C        2.3452140741   -1.3322541737   -0.2156694625
C        4.0592067849   -1.8165791486   -2.6328585030
C        3.4896708988   -2.8690339260   -1.6722102533
N        2.2593781112   -2.3676770060   -1.0221635171
N        4.3262703583   -0.5284180221   -2.2246201596
O        4.2973455853   -2.0874786425   -3.7994219212
F        3.3865047025   -1.1568020961    2.4964912277
H       -2.2742329640    1.3360168485    0.6565539113
H       -1.5839601416    0.6481059394   -1.6269077751
H       -0.8365081385    0.7767871705    2.5988116065
H        6.9096385624    1.2591366275    1.0505429435
H        0.5238715654   -0.5773507005   -1.9715474191
H        1.2383363695   -0.4437213691    2.2957671723
H        6.3271464063    0.8617150231   -1.3114480248
H        5.5031923089    0.2697107793    2.8390677017
H        3.2544783711   -3.7687524583   -2.2475900931
H        4.2452997697   -3.1369884348   -0.9282466491
H        4.8088415270    0.0044116344   -2.9366848617
30   

C       -1.3582637056    0.8061164197    0.4889509267
C       -1.1130410984    0.1681754696   -0.7270749781
C       -0.3953809064    0.7619085539    1.4977192553
C        6.0116309107    0.6151560760    0.9010925633
C        0.0869787650   -0.5221218164   -0.9290982367
C        0.8067839076    0.0733051909    1.2972190913
C        5.6853279066    0.4838866372   -0.4452279436
C        5.1986966754    0.0181835183    1.8602519433
C        1.0590044750   -0.6080423121    0.0866607032
C        3.6489236996   -0.7110058632    0.1371393470
C        4.5360644472   -0.2040319111   -0.8410708141
C        4.0347398461   -0.6617201013    1.4921734472
C        2.3335954269   -1.3137094197   -0.2598973565
C        4.0788837019   -1.6964601003   -2.6696955516
C        3.5100353807   -2.7916064408   -1.7552702097
N        2.2687958976   -2.3284542845   -1.0962623557
N        4.3453788380   -0.4267303231   -2.2054296403
O        4.3231339005   -1.9182641053   -3.8453711795
F        3.3257696829   -1.3032872125    2.4492230753
H       -2.2887005204    1.3401945253    0.6459912745
H       -1.8517304608    0.2089190067   -1.5195660701
H       -0.5766420672    1.2685196918    2.4389156043
H        6.9099260233    1.1473680334    1.1964307480
H        0.2499312863   -0.9957030032   -1.8917539334
H        1.5206116864    0.0984950168    2.1053096275
H        6.3515826987    0.8982366197   -1.1930965549
H        5.4705165386    0.0688492641    2.9078688467
H        3.2886322092   -3.6700761029   -2.3677357103
H        4.2616288156   -3.0826250122   -1.0158935946
H        4.8346397746    0.1363933393   -2.8890248152
30   

C       -1.3836888431    0.7697880320    0.5317955247
C       -1.2454929661   -0.0564411435   -0.5830949172
C       -0.3050225002    0.9429276592    1.3986905838
C        6.0134945393    0.5398609404    0.9952449630
C       -0.0368606442   -0.7195874896   -0.8227335962
C        0.9053281867    0.2819213322    1.1601750922
C        5.7267372923    0.4464563368   -0.3634647597
C        5.1503681081   -0.0470416222    1.9160712604
C        1.0542852004   -0.5929591113    0.0599327243
C        3.6412978568   -0.7031096428    0.1279889030
C        4.5717431831   -0.1993474680   -0.8108607485
C        3.9791767365   -0.6827706827    1.4966308465
C        2.3300522376   -1.2797451729   -0.3125517803
C        4.1329487191   -1.6317040524   -2.6897797777
C        3.5281955754   -2.7392131047   -1.8149845050
N        2.2782586388   -2.2775961048   -1.1711260163
N        4.4159192804   -0.3817325697   -2.1851771472
O        4.3999353077   -1.8282509539   -3.8650282285
F        3.1996962152   -1.2942474826    2.4193033786
H       -2.3206155584    1.2830881692    0.7170010776
H       -2.0748843572   -0.1831909476   -1.2696913268
H       -0.4016992476    1.5997383415    2.2557777590
H        6.9172611083    1.0383864691    1.3300830285
H        0.0303901393   -1.3401562344   -1.7101258774
H        1.7139513967    0.4878487215    1.8457438262
H        6.4280986024    0.8571436408   -1.0806465214
H        5.3855247735   -0.0197309867    2.9734260039
H        3.3098963078   -3.5997842830   -2.4533958408
H        4.2591535269   -3.0581065706   -1.0665097274
H        4.9336742922    0.1893220321   -2.8406271510
30   

C       -1.3959364371    0.7308933714    0.5957828109
C       -1.3379368477   -0.2479745934   -0.3956908675
C       -0.2357910570    1.0821017572    1.2850092822
C        6.0054971182    0.4600394795    1.0702670104
C       -0.1262386659   -0.8839998042   -0.6885068288
C        0.9769444755    0.4480016150    0.9929684243
C        5.7684874606    0.3927555981   -0.2994978551
C        5.0854193781   -0.1021572374    1.9499715957
C        1.0523946150   -0.5748946119    0.0188859514
C        3.6319643123   -0.6998571357    0.0949870440
C        4.6115399147   -0.2088962238   -0.8008861689
C        3.9111388773   -0.6928471222    1.4777068171
C        2.3251406760   -1.2411842249   -0.3933222778
C        4.1878535436   -1.5711521896   -2.7363981012
C        3.5281727265   -2.6843158886   -1.9122794038
N        2.2747767640   -2.2100987505   -1.2848717832
N        4.4983252041   -0.3492009899   -2.1841569666
O        4.4826538415   -1.7406889895   -3.9092064508
F        3.0601349959   -1.2593828090    2.3651799140
H       -2.3351178953    1.2235349656    0.8212588356
H       -2.2331121074   -0.5152918705   -0.9457390083
H       -0.2715527102    1.8564977706    2.0428674198
H        6.9114562887    0.9241377259    1.4461835650
H       -0.1286518788   -1.6295123244   -1.4765720383
H        1.8500128102    0.7906412246    1.5311086765
H        6.5092234904    0.7914667894   -0.9830851484
H        5.2753325477   -0.0871794874    3.0166626837
H        3.3037915675   -3.5189365976   -2.5822436144
H        4.2300725133   -3.0461127212   -1.1555830496
H        5.0534782476    0.2243292910   -2.8059790212
30   

C       -1.3921573515    0.6951801179    0.6659555339
C       -1.3800389692   -0.4103956081   -0.1848335725
C       -0.1886338650    1.1980902691    1.1601927105
C        5.9903133724    0.3835188820    1.1511297543
C       -0.1686602618   -1.0188420997   -0.5330618207
C        1.0232108335    0.5912566728    0.8125741165
C        5.8114165136    0.3296507187   -0.2278511405
C        5.0107867171   -0.1430158531    1.9869928555
C        1.0564389666   -0.5485410046   -0.0233314457
C        3.6261316705   -0.6973844874    0.0657491627
C        4.6576979414   -0.2288468417   -0.7841514132
C        3.8387605218   -0.6908230171    1.4612232707
C        2.3243245580   -1.1945799769   -0.4736934371
C        4.2491096083   -1.5203841844   -2.7753721545
C        3.5208105142   -2.6291596132   -2.0080181999
N        2.2680659045   -2.1301732122   -1.3995551715
N        4.5946624501   -0.3326048068   -2.1739696218
O        4.5751474236   -1.6660660413   -3.9430941199
F        2.9232363027   -1.2123933759    2.3109449004
H       -2.3312225351    1.1664038595    0.9336930258
H       -2.3112602011   -0.7984569016   -0.5817554300
H       -0.1914829970    2.0672494386    1.8081355706
H        6.8944341899    0.8142450639    1.5688755157
H       -0.2046645749   -1.8703425715   -1.2042860163
H        1.9330444823    1.0388722811    1.1922653898
H        6.5936629563    0.7086275777   -0.8754939510
H        5.1504506880   -0.1317697038    3.0614840952
H        3.2853992144   -3.4329432215   -2.7110923726
H        4.1854343720   -3.0419860039   -1.2438547773
H        5.1931399343    0.2355586238   -2.7594826526
