74

C      4.39507   -3.26158   -3.58956
C      4.33591   -3.37451   -2.19563
C      3.64949   -2.26597   -4.22929
C     -2.84724  -17.22640    5.70281
C     -1.69851  -17.93471    6.06504
C      3.53325   -2.50856   -1.45281
C      2.85408   -1.39381   -3.48172
C      0.65174   -2.96327    1.18566
C      0.39073   -3.28264   -1.18169
C     -0.96382   -0.11533    0.86083
C      0.33292   -4.30591    1.41544
C      0.06224   -4.61558   -0.97194
C     -1.61385    0.80329    1.68432
C     -2.76234  -15.84188    5.56406
C      0.49266    1.95506    2.00913
C     -0.51792  -17.21665    6.27279
C      0.70570   -2.42708   -0.10797
C      2.77043   -1.50752   -2.08243
C      0.40671   -0.01148    0.57747
C      1.14404    1.03904    1.17969
C      0.03806   -5.14196    0.33004
C     -0.87926    1.84753    2.25830
C     -1.52905  -15.21076    5.79039
C      1.06286   -0.99949   -0.32095
C      1.92754   -0.57955   -1.28587
C      2.63365    1.14865    0.94702
C      2.10428    0.90712   -1.53851
C      2.99916    1.59070   -0.48501
C     -1.37763  -13.72394    5.62941
C     -0.77871   -9.24622    2.92263
C     -0.70961   -8.51807    1.57560
C     -1.16763  -10.72229    2.76928
C     -0.32454   -7.05479    1.73558
C     -1.22570  -11.44347    4.11395
N     -0.42348  -15.88674    6.14036
O     -0.41155  -13.79048    3.07279
O     -1.44937    2.78888    3.08372
O     -0.29192   -6.46693    0.43389
S     -1.59320  -13.23332    3.84322
H      5.01704   -3.93880   -4.16924
H      4.91718   -4.13937   -1.68651
H      3.68519   -2.16940   -5.31171
H     -3.78839  -17.74230    5.53099
H     -1.71213  -19.01423    6.18426
H      3.48736   -2.60619   -0.37246
H      2.26955   -0.63367   -3.99409
H      0.87038   -2.32193    2.03538
H      0.40596   -2.89270   -2.19447
H     -1.53217   -0.93063    0.42224
H      0.31652   -4.67934    2.43311
H     -0.18205   -5.27120   -1.80282
H     -2.68105    0.70691    1.87928
H     -3.63203  -15.25601    5.27757
H      1.04508    2.76198    2.48345
H      0.39779  -17.73236    6.55782
H      3.07672    1.83816    1.67224
H      3.08281    0.16503    1.12498
H      2.53319    1.07611   -2.52985
H      1.12280    1.39277   -1.52339
H      2.88806    2.67701   -0.58698
H      4.05400    1.35509   -0.66829
H     -2.13810  -13.17049    6.19070
H     -0.37484  -13.41988    5.93664
H      0.19483   -9.18089    3.42644
H     -1.50121   -8.74124    3.57833
H      0.02115   -9.00700    0.92153
H     -1.67879   -8.57357    1.06645
H     -2.14081  -10.79539    2.26757
H     -0.44056  -11.23293    2.12908
H      0.66191   -6.96311    2.21135
H     -1.05613   -6.52844    2.36482
H     -0.26145  -11.39320    4.63111
H     -2.00897  -11.03678    4.76424
H     -2.39734    2.59975    3.16737
