25   

C        0.0068803409   -0.0810819919    1.3459008536
C        1.6315915788   -0.6648274863    2.9781618795
C       -0.8535718946   -1.0031496974    1.9414223627
C        1.2903646388    0.0991544980    1.8649608425
C        0.7114609221   -1.5718246767    3.5098646211
C        2.3068155728    1.0640187604    1.3402247223
C        2.8336459599    4.1089757636    0.8928315394
C        2.3050045586   -2.4958919592    5.2195317292
C        2.6594766767    2.9351757398   -0.0658273465
N       -0.5059795604   -1.7384553961    3.0068044150
N        0.9822361027   -2.3719280457    4.5945043697
O        3.4815459096    1.0179538733    1.6971550577
O        1.7633965729    1.9602501259    0.4871598488
H       -0.3312174009    0.4860000676    0.4874228653
H        2.6076864013   -0.5615602083    3.4313667548
H       -1.8459644773   -1.1317049916    1.5250635603
H        1.8632492355    4.5666935116    1.1069457741
H        3.2856278550    3.7729916603    1.8309996206
H        3.4869403245    4.8621234360    0.4427674577
H        3.0576326336   -2.7700251145    4.4726687350
H        2.2829549715   -3.2792425107    5.9837902333
H        2.5914539484   -1.5549729052    5.7006517218
H        3.6356504809    2.4913430643   -0.2915583181
H        2.2423413011    3.3015892995   -1.0090685078
H        0.2079576870   -2.9812745340    4.8332252320
25   

C       -0.0024657834   -0.1855624851    1.2506519816
C        1.6132868913   -0.6612449422    2.9260970329
C       -0.8582974145   -1.0839519381    1.8878656941
C        1.2749854004    0.0322566773    1.7672048216
C        0.6986060241   -1.5484913107    3.4987576596
C        2.2751099011    0.9929847864    1.2060392413
C        2.9399154557    4.0421274172    1.0446186865
C        2.2868280849   -2.3591708429    5.2692587014
C        2.5523383995    3.0061494163   -0.0058420258
N       -0.5119844255   -1.7569810340    2.9943520901
N        0.9676015278   -2.2826222380    4.6294308117
O        3.4802312044    0.8495040250    1.3947143694
O        1.6782889778    2.0174135929    0.5575825281
H       -0.3372309598    0.3365515044    0.3628706478
H        2.5846056726   -0.5170503568    3.3784086276
H       -1.8460847622   -1.2447341174    1.4717605027
H        2.0430505663    4.5190939384    1.4509954047
H        3.4953667990    3.5702025894    1.8607344471
H        3.5734864306    4.8104843926    0.5920577991
H        3.0481919741   -2.6626602573    4.5428807153
H        2.2675929028   -3.1024401892    6.0726286443
H        2.5590270555   -1.3915322593    5.7033341241
H        3.4543457636    2.5440475876   -0.4226655231
H        2.0328631814    3.5071432054   -0.8287204252
H        0.1986079523   -2.8882618557    4.8934230022
25   

C       -0.0021574273   -0.2886243755    1.1555713173
C        1.6014939278   -0.6426243889    2.8713682775
C       -0.8464501365   -1.1728793141    1.8272960952
C        1.2641710229   -0.0203196030    1.6729261234
C        0.6994938086   -1.5202530712    3.4779181546
C        2.2388730825    0.9462395074    1.0763455470
C        3.0669144478    3.9589602537    1.1817648539
C        2.2831566539   -2.2060961540    5.3040832269
C        2.4691806246    3.0817328149    0.0863137594
N       -0.4994290851   -1.7818366016    2.9702525550
N        0.9696524141   -2.1883038126    4.6485063545
O        3.4468735910    0.7278404234    1.0820503613
O        1.6224066748    2.0714178149    0.6528364361
H       -0.3360476273    0.1858789992    0.2412526478
H        2.5641438818   -0.4500675166    3.3239280848
H       -1.8257676435   -1.3751242526    1.4092654845
H        2.2688940158    4.4218880111    1.7698591606
H        3.7012953978    3.3634983326    1.8452637417
H        3.6775525477    4.7480526036    0.7333701634
H        3.0586913141   -2.5265617005    4.6003434666
H        2.2710102544   -2.9113184636    6.1411924242
H        2.5298111675   -1.2135217165    5.6949406690
H        3.2718567650    2.6343155811   -0.5107219839
H        1.8715171174    3.7052997653   -0.5859653969
H        0.2112009752   -2.7980134528    4.9329656101
25   

C       -0.0108766159   -0.4012210556    1.0665663194
C        1.5751150576   -0.6201675352    2.8195098734
C       -0.8342052680   -1.2852232513    1.7643779963
C        1.2360438471   -0.0650175702    1.5894988981
C        0.6954027095   -1.5024030584    3.4516321733
C        2.1794534535    0.9113924770    0.9554244961
C        3.2269090687    3.8390058285    1.2785002375
C        2.2733127857   -2.0506830182    5.3287291865
C        2.4096025934    3.1389521492    0.1974171154
N       -0.4847647331   -1.8299564531    2.9385772418
N        0.9702888489   -2.1075722089    4.6548508228
O        3.3555588317    0.6294488832    0.7488127180
O        1.5883533516    2.1112718599    0.7700226404
H       -0.3455952370    0.0202954054    0.1270937070
H        2.5231796593   -0.3721135607    3.2752119733
H       -1.7984978253   -1.5414217699    1.3410378017
H        2.5618646924    4.2652766954    2.0354719637
H        3.9103513876    3.1325185682    1.7591344264
H        3.8172715644    4.6453121729    0.8335866366
H        3.0707692702   -2.3701775155    4.6494771394
H        2.2739132880   -2.7219661296    6.1933858965
H        2.4775440865   -1.0348585671    5.6825474704
H        3.0789783527    2.7286253936   -0.5671040582
H        1.7631466891    3.8724660843   -0.2945862185
H        0.2299922769   -2.7324866633    4.9539137841
25   

C       -0.0356938471   -0.5032010365    0.9955174510
C        1.5073228748   -0.5633423129    2.7973350023
C       -0.8241106716   -1.4123554453    1.7013169355
C        1.1693194218   -0.0679607045    1.5422480382
C        0.6649951574   -1.4768931093    3.4361058738
C        2.0741851249    0.9292091628    0.8797495816
C        3.3788903408    3.7274220319    1.3408463777
C        2.2236984710   -1.8757483285    5.3663333881
C        2.3405057465    3.2165352553    0.3469476468
N       -0.4778139662   -1.8933544443    2.9038163258
N        0.9426223828   -2.0258332116    4.6653641618
O        3.1685430876    0.6076392669    0.4290687714
O        1.5506166020    2.1719013569    0.9327287296
H       -0.3643227157   -0.1413055246    0.0295008259
H        2.4256171386   -0.2441969661    3.2687631332
H       -1.7565208423   -1.7442419508    1.2595222994
H        2.8849391528    4.0903913652    2.2470821520
H        4.0774148273    2.9289801236    1.6087994557
H        3.9460457927    4.5497558017    0.8950807381
H        3.0545072212   -2.1631925745    4.7132375389
H        2.2434429966   -2.5255030956    6.2470688725
H        2.3591468089   -0.8415429565    5.6992601362
H        2.8385915702    2.8697690235   -0.5655016524
H        1.6787586331    4.0412736833    0.0642387676
H        0.2336720593   -2.6863595078    4.9640318736
25   

C       -0.0350450043   -0.6214214418    0.9241987276
C        1.4465039748   -0.5115178132    2.7729245118
C       -0.7698953075   -1.5754854125    1.6283452837
C        1.1049630317   -0.0657313930    1.5003941698
C        0.6611542595   -1.4765358125    3.4088659358
C        1.9627876354    0.9576757738    0.8134414703
C        3.5371199764    3.5983221020    1.3240245177
C        2.1919556025   -1.7150846322    5.3875783948
C        2.2984089379    3.2756364138    0.4941289567
N       -0.4269578296   -1.9963439229    2.8539831869
N        0.9459303920   -1.9770110605    4.6570298914
O        2.9035927681    0.6344003492    0.0965405431
O        1.5505995361    2.2105863176    1.0979212205
H       -0.3526544618   -0.3205580853   -0.0661850170
H        2.3223345987   -0.1116955161    3.2627780788
H       -1.6539526580   -1.9970875717    1.1642113996
H        3.2462136190    3.8706000179    2.3429879872
H        4.2081021113    2.7347833418    1.3614498301
H        4.0761957238    4.4377803836    0.8753576023
H        3.0600258101   -1.9451462294    4.7607415508
H        2.2397521193   -2.3483473731    6.2791913872
H        2.2360799639   -0.6685985794    5.7064261979
H        2.5930455363    3.0201968559   -0.5299692682
H        1.6622880912    4.1646209171    0.4385935813
H        0.2837518037   -2.6871740055    4.9492756569
25   

C       -0.0277069987   -0.7187294065    0.8644961472
C        1.3754249784   -0.4491834931    2.7559473177
C       -0.6980840815   -1.7240514590    1.5612431268
C        1.0313365455   -0.0455824336    1.4697048514
C        0.6585230928   -1.4712848729    3.3836937255
C        1.8358574251    1.0114430516    0.7719612644
C        3.6636304965    3.4768746588    1.2804858485
C        2.1440299509   -1.5498633184    5.4095516513
C        2.2765734695    3.3321219244    0.6618514521
N       -0.3613864294   -2.0930080999    2.8050979822
N        0.9493015812   -1.9303832791    4.6462899571
O        2.5741001677    0.7392423811   -0.1686604178
O        1.5694971188    2.2396673084    1.2656115009
H       -0.3291969873   -0.4701628640   -0.1454339923
H        2.1987158918    0.0306110363    3.2646742426
H       -1.5219944486   -2.2331019203    1.0746529995
H        3.5791404274    3.6306265358    2.3604482028
H        4.2619959898    2.5803347648    1.0918409925
H        4.1782497656    4.3366103004    0.8416338102
H        3.0479776986   -1.7095389485    4.8122546831
H        2.2201211398   -2.1656048087    6.3114179609
H        2.0855135063   -0.4998112709    5.7140203790
H        2.3646623363    3.1958454846   -0.4218608211
H        1.7105531254    4.2537309467    0.8299849172
H        0.3430648455   -2.6922425874    4.9297276703
25   

C       -0.0086039696   -0.7793791458    0.8176301368
C        1.3109634356   -0.3814774233    2.7450938763
C       -0.6141701863   -1.8317467969    1.5037180712
C        0.9698053838   -0.0121552857    1.4471367435
C        0.6627041475   -1.4550453199    3.3615681090
C        1.7132082991    1.0875839118    0.7530705716
C        3.7586082497    3.3800027663    1.2212348983
C        2.0880059004   -1.3943871290    5.4311553367
C        2.2811258851    3.3824325226    0.8405215963
N       -0.2854765547   -2.1625300059    2.7602713940
N        0.9554111737   -1.8820967494    4.6349147036
O        2.2447581689    0.9101320369   -0.3381048054
O        1.6120859241    2.2560960688    1.4249874581
H       -0.2952027846   -0.5667086457   -0.2050205163
H        2.0782801340    0.1663194070    3.2725205619
H       -1.3769189834   -2.4118757519    0.9973584865
H        3.8661702885    3.3978176337    2.3099137373
H        4.2537048277    2.4873172634    0.8269291144
H        4.2513315071    4.2631543532    0.8043232765
H        3.0214124801   -1.4837634674    4.8653603255
H        2.1853586740   -1.9920333863    6.3430940791
H        1.9317160489   -0.3498362846    5.7196446631
H        2.1775475909    3.3824145695   -0.2503457691
H        1.8158672412    4.3006294608    1.2125992832
H        0.4052317860   -2.6887370748    4.9086562210
25   

C        0.0460176016   -0.8233056805    0.7748350184
C        1.2668838117   -0.3354897300    2.7450069431
C       -0.5027223560   -1.9199050684    1.4385713795
C        0.9446829862    0.0132579000    1.4358329513
C        0.6795990903   -1.4563598518    3.3381341013
C        1.6187093045    1.1674762983    0.7636076975
C        3.8305562158    3.3160053268    1.1465346610
C        2.0219017084   -1.2943025244    5.4574008650
C        2.3131557409    3.4149347489    1.0209281548
N       -0.1925137961   -2.2301988460    2.7047364224
N        0.9601848189   -1.8654840609    4.6200812628
O        1.9595848970    1.1094872625   -0.4137392664
O        1.6882116498    2.2482142631    1.5742785240
H       -0.2229521551   -0.6282784034   -0.2563445863
H        1.9732484461    0.2634641160    3.3013938237
H       -1.2035795683   -2.5524608791    0.9062041033
H        4.1138353909    3.1958796171    2.1964896460
H        4.2069320475    2.4625367647    0.5743026377
H        4.2958793524    4.2266570125    0.7582974627
H        2.9803655594   -1.3145168660    4.9279838163
H        2.1281383681   -1.8823300303    6.3745803451
H        1.7775767703   -0.2640162814    5.7359032186
H        2.0345520023    3.5527574631   -0.0298391755
H        1.9639907947    4.2954426835    1.5693466019
H        0.4610904772   -2.7105693660    4.8750640488
25   

C        0.0996739195   -0.8761712819    0.7511833940
C        1.2213561849   -0.3218557174    2.7609736049
C       -0.3999545207   -2.0086551345    1.3924179505
C        0.9256943321    0.0121473110    1.4410200236
C        0.6867555001   -1.4808247694    3.3307469439
C        1.5266111330    1.2178166999    0.7911165458
C        3.8713519175    3.2486365873    1.0126190715
C        1.9345342267   -1.2390341239    5.5002676961
C        2.3601009842    3.4029720681    1.1550618316
N       -0.1120563125   -2.3057488172    2.6665214532
N        0.9475299942   -1.8771955164    4.6209402884
O        1.6811401587    1.2744422809   -0.4252512998
O        1.7815435498    2.2016743472    1.6846133256
H       -0.1533629311   -0.6918550988   -0.2861736082
H        1.8679911123    0.3132864670    3.3488677764
H       -1.0432731987   -2.6801134346    0.8356107080
H        4.3178617015    3.0083532568    1.9821305374
H        4.1091618968    2.4514066083    0.3017190558
H        4.3074238884    4.1823344451    0.6457510604
H        2.9134571658   -1.1974599523    5.0110839790
H        2.0399620311   -1.8191547893    6.4225590165
H        1.6131625302   -0.2266542178    5.7659257455
H        1.9190576195    3.6608068366    0.1856508463
H        2.1465159579    4.2289923537    1.8406472268
H        0.4929405473   -2.7523125041    4.8571036410
25   

C        0.1840437963   -0.9004589342    0.7300060885
C        1.1930840094   -0.3049847980    2.7862085373
C       -0.2740476371   -2.0666857970    1.3404058802
C        0.9360440605    0.0249057155    1.4567222080
C        0.7042530050   -1.4993528861    3.3237162046
C        1.4674248711    1.2804174288    0.8405157902
C        3.9019915946    3.2224377231    0.8634507410
C        1.8449792318   -1.2102394001    5.5461853857
C        2.4412601089    3.3950783166    1.2686289482
N       -0.0180672426   -2.3618532301    2.6212918565
N        0.9331523651   -1.8934628338    4.6207090332
O        1.4447072648    1.4499732465   -0.3752262038
O        1.9096351660    2.1599118889    1.7689637425
H       -0.0468803542   -0.7177244353   -0.3128778443
H        1.7742425880    0.3554337819    3.4130211648
H       -0.8584303316   -2.7657725742    0.7534384507
H        4.4907570551    2.8753021433    1.7177877215
H        3.9899736597    2.4962297189    0.0496029672
H        4.3081206212    4.1786190859    0.5209138729
H        2.8398597082   -1.1098112096    5.0995996545
H        1.9433484908   -1.7925683299    6.4678601378
H        1.4568187097   -0.2198230333    5.8053716028
H        1.8587476214    3.7596021012    0.4150485297
H        2.3742815804    4.1522213274    2.0561508843
H        0.5191827955   -2.7950499903    4.8305062673
25   

C       -0.2165355228   -0.1450524176    1.1671078215
C        1.6037171909   -0.9779460576    2.4288019946
C       -1.0725457373   -0.6644295798    2.1364777441
C        1.1663382290   -0.2939569980    1.2958189243
C        0.6809504632   -1.4630802606    3.3603947512
C        2.1228154593    0.2448069853    0.2788622929
C        4.7248570635    1.9348507377   -0.0428114145
C        2.4251310204   -2.2690242970    4.9830513665
C        4.4007575066    0.4708909157   -0.3241103627
N       -0.6293717543   -1.3147499791    3.2197488170
N        1.0438404671   -2.1312368811    4.5057536399
O        1.7210500495    0.8448500489   -0.7141556849
O        3.4125524201   -0.0123886527    0.5971802610
H       -0.6329993001    0.3739708958    0.3117972735
H        2.6571957818   -1.1409014767    2.6026438877
H       -2.1411791209   -0.5352737819    2.0095908296
H        3.8371901508    2.5579823917   -0.1882735243
H        5.0786443307    2.0507689703    0.9859766835
H        5.5068884961    2.2799065589   -0.7254104273
H        2.9026953892   -1.2867449554    5.0628277591
H        3.0034616217   -2.9048174226    4.3047654327
H        2.4305744870   -2.7313497571    5.9752652878
H        5.3107931261   -0.1263544289   -0.2097903628
H        4.0639253417    0.3569647269   -1.3606515965
H        0.2438689319   -2.3944704717    5.0705497827
25   

C       -0.2422358627   -0.2203955714    1.1243833085
C        1.6037034535   -0.9329982818    2.4227966294
C       -1.0812660336   -0.7914959191    2.0795590592
C        1.1442244831   -0.2867055744    1.2766654845
C        0.6966879206   -1.4741057871    3.3387404057
C        2.0854181185    0.3288016418    0.2899209015
C        4.8122249601    1.8146570123    0.0504838963
C        2.4582191063   -2.1555858673    4.9990819242
C        4.3351832095    0.4497364065   -0.4364518534
N       -0.6176372693   -1.4113990192    3.1723055404
N        1.0801139367   -2.1100897218    4.4956310884
O        1.6814431472    1.0949064343   -0.5802370188
O        3.3595006478   -0.0920785284    0.4652459360
H       -0.6738258769    0.2762343744    0.2633294797
H        2.6627656177   -1.0195227937    2.6169428201
H       -2.1534812261   -0.7281616552    1.9342993348
H        3.9808821818    2.5259728799    0.0696007559
H        5.2328937010    1.7289978987    1.0568350315
H        5.5837591135    2.2003695308   -0.6222093307
H        2.8697055431   -1.1440356554    5.0812747264
H        3.0890243993   -2.7561536582    4.3356284474
H        2.4749519530   -2.6112587751    5.9942450834
H        5.1891853845   -0.2332111855   -0.4834228288
H        3.9308300734    0.5369321264   -1.4511891508
H        0.2883033035   -2.4214247822    5.0473125018
25   

C       -0.2565974395   -0.2887257896    1.0772263305
C        1.5968584167   -0.8835585500    2.4247445353
C       -1.0818249431   -0.9130462189    2.0113278044
C        1.1261735148   -0.2730978143    1.2641520783
C        0.7033468847   -1.4821346826    3.3174985828
C        2.0555403988    0.4204452873    0.3194364472
C        4.8863822919    1.6903011768    0.1066712501
C        2.4622123347   -2.0450776129    5.0239057465
C        4.2563362512    0.4658154801   -0.5503334679
N       -0.6076449818   -1.5042469549    3.1159270413
N        1.0970248239   -2.0891723166    4.4863601087
O        1.6649786867    1.3332109891   -0.4023310523
O        3.2908826578   -0.1320214487    0.3264492013
H       -0.6947608062    0.1875264613    0.2081434769
H        2.6553794676   -0.8941105344    2.6405726964
H       -2.1520945244   -0.9152594868    1.8402497964
H        4.1272449900    2.4548823183    0.2980736695
H        5.3571509920    1.4087179627    1.0533225701
H        5.6485011777    2.1152828606   -0.5529555442
H        2.8061596414   -1.0090878878    5.1119048306
H        3.1463652634   -2.6059080346    4.3787927093
H        2.4831981315   -2.4959609652    6.0211718289
H        5.0387785498   -0.2684561813   -0.7661674287
H        3.8013406429    0.7487406756   -1.5062037385
H        0.3132095005   -2.4496939672    5.0191930887
25   

C       -0.2467571270   -0.3616859343    1.0403240664
C        1.5955274571   -0.8465957482    2.4477772817
C       -1.0606360172   -1.0444664105    1.9434213540
C        1.1245164764   -0.2642390156    1.2737204557
C        0.7133950253   -1.5072009723    3.3071559222
C        2.0434978861    0.5074387316    0.3801788917
C        4.9563319974    1.5598118049    0.1289554376
C        2.4444126441   -1.9547945508    5.0742920231
C        4.1695988162    0.5163248160   -0.6586039811
N       -0.5860544637   -1.6126767047    3.0603712303
N        1.1063902723   -2.0932365477    4.4868251499
O        1.6822487770    1.5477843171   -0.1610090824
O        3.2170185075   -0.1383438967    0.1910952182
H       -0.6842384251    0.0974886726    0.1619841703
H        2.6460244275   -0.7859349140    2.6928082234
H       -2.1226519152   -1.1121871783    1.7378028622
H        4.2875067889    2.3408571786    0.5033314196
H        5.4643966546    1.0877717759    0.9752007560
H        5.7064489354    2.0253217546   -0.5169281916
H        2.7137682696   -0.8975844058    5.1696590747
H        3.1885820165   -2.4694707825    4.4577970524
H        2.4587710664   -2.4003735883    6.0740615622
H        4.8625965630   -0.2329172679   -1.0540328719
H        3.6766500297    0.9897387860   -1.5151132302
H        0.3297830416   -2.5049486844    4.9924487502
25   

C       -0.2263034714   -0.4371276742    1.0142892321
C        1.5843951871   -0.8080383827    2.4970110842
C       -1.0283564063   -1.1828075559    1.8777596558
C        1.1230993140   -0.2501357501    1.3081342066
C        0.7145782851   -1.5356806310    3.3135765562
C        2.0296696126    0.5950169907    0.4669097161
C        4.9956225994    1.4483949596    0.1025639792
C        2.3944689396   -1.8741778451    5.1525319229
C        4.0514176413    0.6176702636   -0.7613103144
N       -0.5629859675   -1.7279781532    3.0102804969
N        1.0973777779   -2.1042949814    4.5050492198
O        1.7184716709    1.7353830481    0.1391611219
O        3.1182500865   -0.0962882479    0.0616781194
H       -0.6566535080    0.0008428897    0.1220098567
H        2.6174548815   -0.6759086516    2.7840028375
H       -2.0737622987   -1.3208391948    1.6271423103
H        4.4363288867    2.2038115965    0.6629401495
H        5.5279614652    0.8016012023    0.8063975851
H        5.7279564009    1.9573681377   -0.5308250428
H        2.5843332589   -0.8010172028    5.2604112545
H        3.1999983155   -2.3331749098    4.5701372771
H        2.3950305176   -2.3210772803    6.1518173642
H        4.6358284021   -0.1048362122   -1.3396194330
H        3.5333146160    1.2662361057   -1.4766085779
H        0.3298983023   -2.5714488549    4.9752009718
25   

C       -0.1719767253   -0.4912874185    0.9950890438
C        1.5738987443   -0.7582040912    2.5761807842
C       -0.9692342956   -1.2985991653    1.8063566287
C        1.1409319227   -0.2152010615    1.3706004875
C        0.7103087765   -1.5513323966    3.3363599870
C        2.0469643606    0.6835808577    0.5815031330
C        5.0414053780    1.3253279420    0.0344901018
C        2.3014367983   -1.7958945937    5.2665001464
C        3.9361578245    0.7405536126   -0.8396120296
N       -0.5328162044   -1.8239380834    2.9597133840
N        1.0641609364   -2.1095885559    4.5416002367
O        1.8398861149    1.8893530316    0.4972628638
O        3.0159077256   -0.0191290977   -0.0433951811
H       -0.5786393298   -0.0778849411    0.0805593824
H        2.5788848944   -0.5626089391    2.9205069484
H       -1.9866044353   -1.5050757867    1.4948184049
H        4.6214961146    2.0203539634    0.7679933537
H        5.5678296349    0.5235720365    0.5609519318
H        5.7588222277    1.8684080136   -0.5875601773
H        2.4103963197   -0.7130774893    5.3890424711
H        3.1698912358   -2.1944400528    4.7320080418
H        2.2731444532   -2.2489363783    6.2626141702
H        4.3829139761    0.0791964179   -1.5886291597
H        3.4228684406    1.5448832093   -1.3784544945
H        0.3039307037   -2.6309116004    4.9641665911
25   

C       -0.0790564209   -0.5503169749    0.9641135807
C        1.5730880981   -0.7082871741    2.6583183946
C       -0.8699695023   -1.4172287744    1.7184249383
C        1.1784032318   -0.1785902047    1.4342456214
C        0.7183616443   -1.5652970376    3.3564814813
C        2.0927780181    0.7569022311    0.6967483108
C        5.0819674136    1.1859797998   -0.0732449134
C        2.1960781099   -1.7222176228    5.3831110209
C        3.8352676857    0.8762054467   -0.8960675638
N       -0.4761770732   -1.9183924984    2.8976956646
N        1.0324324840   -2.1123875356    4.5777654077
O        2.0508303954    1.9700487234    0.8701981331
O        2.9135645128    0.0826175792   -0.1352794962
H       -0.4475238181   -0.1692970772    0.0200213705
H        2.5393152675   -0.4500842749    3.0665223918
H       -1.8456145586   -1.6953707946    1.3370067307
H        4.8208156006    1.7792807935    0.8082937176
H        5.5598821363    0.2561256644    0.2492715156
H        5.7932758296    1.7564798892   -0.6775336952
H        2.2219180273   -0.6358259106    5.5190691881
H        3.1224718941   -2.0545457919    4.9034281638
H        2.1355167492   -2.1867479213    6.3724662288
H        4.1259013118    0.3167759215   -1.7908290488
H        3.3695013014    1.8097440309   -1.2313357028
H        0.2840804035   -2.6880685616    4.9476034602
25   

C       -0.1916876390    0.4776497772    1.9952032318
C        1.5950536691   -0.5203387440    3.1958135702
C       -0.9808968633   -0.6161657589    2.3511027054
C        1.1296548116    0.5444761474    2.4313202580
C        0.7421270248   -1.5840783923    3.5020307326
C        2.0642035502    1.6652146493    2.0816458433
C        2.5879705813    3.8704187117   -0.0467226678
C        2.5119692305   -2.9334695163    4.6712721930
C        3.3551895029    2.6098430582    0.3406598439
N       -0.5205165697   -1.6322345814    3.0943513643
N        1.1324113977   -2.6751360593    4.2414881993
O        2.4469762224    2.4727182195    2.9214852327
O        2.4514899346    1.5905213845    0.7904744583
H       -0.6101069348    1.2678447578    1.3847810022
H        2.6149118218   -0.5169050564    3.5525549201
H       -2.0089544826   -0.6484486348    2.0093745230
H        1.8570321571    3.6403731829   -0.8277008781
H        2.0660320069    4.2827885598    0.8221666423
H        3.2820793570    4.6261383751   -0.4257489489
H        3.1864684920   -2.9405900042    3.8085524872
H        2.5720121076   -3.9120114241    5.1582281647
H        2.8395580337   -2.1730327587    5.3876754798
H        4.0978491545    2.8479461664    1.1104035252
H        3.8987438389    2.2377222055   -0.5334525845
H        0.3886907925   -3.3544844018    4.3572791296
25   

C       -0.1111930735    0.4083998180    1.8778434289
C        1.6169818908   -0.5496494558    3.1933458803
C       -0.9240174415   -0.6627585089    2.2492682187
C        1.1903809309    0.4867981722    2.3689902084
C        0.7426907853   -1.5923740797    3.5105850040
C        2.1632637171    1.5647232543    1.9994691637
C        2.5815916291    3.9770380945    0.0847446639
C        2.4550554576   -2.9060300508    4.7990634985
C        3.2614319275    2.6150107173    0.1870972347
N       -0.5035434896   -1.6478842462    3.0554509208
N        1.0943893158   -2.6548389315    4.3087341967
O        2.7714243004    2.2049229963    2.8511756386
O        2.3353237666    1.6271883076    0.6609239646
H       -0.4944283644    1.1703748965    1.2109108025
H        2.6231140608   -0.5394606615    3.5878620557
H       -1.9368439277   -0.7040793252    1.8656115219
H        1.7171523706    3.9163648459   -0.5832358407
H        2.2488461264    4.3135682831    1.0714091673
H        3.2841739827    4.7140632608   -0.3149110703
H        3.1607948370   -2.9516206049    3.9628950230
H        2.4889538992   -3.8651969919    5.3254735251
H        2.7626640952   -2.1203966468    5.4969056224
H        4.1366835054    2.6840689495    0.8427445220
H        3.6184710118    2.3166162006   -0.8035976915
H        0.3413652925   -3.3241020571    4.4226875505
25   

C       -0.0554134141    0.3215691299    1.7613408332
C        1.6311893514   -0.5846201496    3.1663688020
C       -0.8890188250   -0.7197594614    2.1693979050
C        1.2362900203    0.4113282767    2.2778993148
C        0.7371650932   -1.5994207905    3.5170908197
C        2.2366573867    1.4520709803    1.8829800443
C        2.5848938948    4.0588589148    0.2269726064
C        2.4034683572   -2.8610469130    4.9131234216
C        3.1463934933    2.6503707209    0.0571416763
N       -0.4988868872   -1.6652717942    3.0360518784
N        1.0574942436   -2.6221775235    4.3778976968
O        3.0168975502    1.9369440794    2.6971431932
O        2.2153311514    1.6766181279    0.5502564483
H       -0.4149826429    1.0511111123    1.0464535751
H        2.6280926636   -0.5665122141    3.5840414480
H       -1.8931971978   -0.7705756315    1.7647242577
H        1.6291452903    4.1484061022   -0.2980376032
H        2.4336631543    4.2852346491    1.2868674595
H        3.2843495530    4.7903986605   -0.1879443208
H        3.1279687157   -2.9580101509    4.0976233006
H        2.4141316250   -3.7912676336    5.4900292060
H        2.7038215668   -2.0427178113    5.5756698000
H        4.1116910861    2.5700448405    0.5694526896
H        3.3244828882    2.4607062404   -1.0060104780
H        0.2945707944   -3.2769900848    4.5084204123
25   

C       -0.0131327310    0.2326634315    1.6523120895
C        1.6473094957   -0.6079978665    3.1289485267
C       -0.8614875014   -0.7766174664    2.1073990204
C        1.2752272714    0.3374285869    2.1769973632
C        0.7388005150   -1.5931722917    3.5240682217
C        2.2928626729    1.3492863493    1.7544323251
C        2.6183560298    4.1246357702    0.3855719016
C        2.3739516993   -2.7885810914    5.0121135822
C        3.0333384305    2.7164442224   -0.0299081427
N       -0.4912667277   -1.6754539359    3.0304740158
N        1.0371828670   -2.5675278284    4.4467660328
O        3.2076253452    1.6910241457    2.4992489513
O        2.1031844690    1.7486963904    0.4769495955
H       -0.3610632986    0.9256433820    0.8963125650
H        2.6375901898   -0.5785955752    3.5617671323
H       -1.8615387524   -0.8402600173    1.6944013933
H        1.6097258602    4.3421674161    0.0216685699
H        2.6344248590    4.2223910200    1.4753685119
H        3.3113946134    4.8567756298   -0.0389498617
H        3.1081069438   -2.9356603427    4.2128955987
H        2.3686471306   -3.6862549737    5.6385191248
H        2.6732714427   -1.9381200723    5.6333867424
H        4.0505192195    2.5092629089    0.3210334378
H        3.0463504528    2.6538567558   -1.1225591940
H        0.2666841704   -3.2077187530    4.6026592215
25   

C        0.0079498312    0.1322045991    1.5457535562
C        1.6517749399   -0.6378501857    3.0786437968
C       -0.8513051971   -0.8437446049    2.0501065709
C        1.2967201392    0.2531015914    2.0689075051
C        0.7322685284   -1.5920601211    3.5215158549
C        2.3240808932    1.2414399867    1.6137058883
C        2.6697275980    4.1512836347    0.5571099015
C        2.3446276456   -2.7108659263    5.0920685103
C        2.9106864054    2.7865934993   -0.0810912038
N       -0.4945379669   -1.6929838014    3.0237364892
N        1.0148357743   -2.5135136318    4.5018487008
O        3.3513451239    1.4436901657    2.2565442913
O        1.9878642539    1.8184027493    0.4385311760
H       -0.3350653968    0.7865095442    0.7538592112
H        2.6373281227   -0.5952202787    3.5210118561
H       -1.8497048483   -0.9213360373    1.6354957710
H        1.6402476916    4.4745280778    0.3761514291
H        2.8459024701    4.1055785108    1.6361429741
H        3.3517688987    4.8892380686    0.1249139528
H        3.0850373181   -2.9097304365    4.3100056633
H        2.3265290201   -3.5701854315    5.7699050702
H        2.6448396080   -1.8276946123    5.6654403128
H        3.9476340472    2.4748139353    0.0871468621
H        2.7657418930    2.8659674204   -1.1630582048
H        0.2382433162   -3.1383627776    4.6869143878
25   

C        0.0014647800    0.0232529336    1.4471722383
C        1.6331767285   -0.6590573192    3.0337092134
C       -0.8620721894   -0.9224978946    1.9993761477
C        1.2886617472    0.1698137672    1.9688291751
C        0.7095277184   -1.5862156642    3.5229891816
C        2.3164778368    1.1413422201    1.4788156812
C        2.7401601307    4.1390549696    0.7286297299
C        2.3081456344   -2.6137530747    5.1680696348
C        2.7782793155    2.8526383416   -0.0906055041
N       -0.5130961993   -1.7157041152    3.0217503640
N        0.9826265711   -2.4480324397    4.5587150139
O        3.4312454125    1.2111947197    1.9909388850
O        1.8634430729    1.8860432065    0.4460764992
H       -0.3383535208    0.6338909373    0.6198219137
H        2.6136319705   -0.5916102258    3.4841739553
H       -1.8578818306   -1.0221891137    1.5832609366
H        1.7247787648    4.5463129993    0.7420792949
H        3.0625321487    3.9477227792    1.7566641407
H        3.4115373486    4.8809484769    0.2865760034
H        3.0537018373   -2.8562323950    4.4033847600
H        2.2842892205   -3.4341821710    5.8923204324
H        2.6055667307   -1.7004756662    5.6937469550
H        3.8002506632    2.4580221304   -0.1163859387
H        2.4892495509    3.0759386328   -1.1223792958
H        0.2046077757   -3.0621325485    4.7716543395
