67

C      7.70009   -4.42145   -0.87078
C      6.50788   -3.70364   -0.77090
C      3.39843   -2.95902   -2.68141
C      3.66373   -2.78310   -0.29203
C      2.20640   -2.24095   -2.60038
C      2.46930   -2.07714   -0.20792
C      7.84778   -5.42026   -1.83618
C      5.56722   -5.02096   -2.56785
C      0.83071    0.57743   -3.14600
C     -1.82975    0.38947   -3.93711
C      4.15409   -3.23858   -1.53107
C      5.42669   -3.99248   -1.62343
C      1.72221   -1.78445   -1.36305
C     -0.04084   -0.28000   -2.46044
C     -1.38240   -0.38747   -2.86696
C      6.77396   -5.71859   -2.68662
C      0.37869    1.35253   -4.21201
C     -0.97284    1.27004   -4.60240
C      0.44251   -1.03717   -1.27734
C     -1.58799    0.34456    1.15486
C     -2.28564   -1.34201   -2.13333
C     -2.59698   -0.88410   -0.70078
C     -3.21402   -2.02222    0.12067
C     -0.59876    1.02371    3.28307
C      1.60590    1.82366   -6.18027
C     -1.51215    3.42461   -5.43267
C      7.86692   -5.05820   -5.64441
N     -0.17708   -1.06878   -0.13773
N     -1.37947   -0.32768   -0.06035
N      6.89787   -6.75550   -3.65905
N     -0.46946    0.49106    1.93514
O     -2.68821    0.82298    1.44310
O      7.16663   -7.60496   -6.00416
O      5.35818   -5.86451   -5.49892
O      1.26178    2.20881   -4.83843
O     -1.46621    2.00303   -5.65829
S      6.70430   -6.40260   -5.31174
H      8.53028   -4.18633   -0.21026
H      6.42491   -2.89979   -0.04570
H      3.75378   -3.28872   -3.65363
H      4.21105   -3.01093    0.61842
H      1.64436   -2.03897   -3.50650
H      2.09496   -1.75337    0.75724
H      8.78646   -5.96236   -1.92914
H      4.73841   -5.30170   -3.20654
H      1.87329    0.66400   -2.85507
H     -2.86272    0.33387   -4.27062
H     -3.23332   -1.46558   -2.66479
H     -1.81489   -2.33188   -2.09607
H     -3.29337   -0.04468   -0.73692
H     -2.49729   -2.84149    0.24071
H     -4.10334   -2.41562   -0.38447
H     -3.51330   -1.66205    1.10713
H      0.38939    1.32373    3.64215
H     -1.03047    0.29703    3.98429
H     -1.24898    1.89918    3.25935
H      2.30707    2.57804   -6.54239
H      0.72128    1.79656   -6.82395
H      2.09279    0.84067   -6.18067
H     -1.93603    3.85934   -6.33967
H     -0.51221    3.82986   -5.25365
H     -2.16129    3.65011   -4.57852
H      7.72047   -4.76840   -6.68629
H      7.63658   -4.22489   -4.97954
H      8.88157   -5.42611   -5.48691
H      7.69978   -7.37005   -3.53517
H      0.28856   -0.14851    1.72974
