67

C      8.40823   -4.47336   -0.93593
C      7.14851   -3.90132   -1.11369
C      4.15254   -2.80630    0.80214
C      4.19933   -3.39267   -1.53473
C      2.89451   -2.23918    0.63723
C      2.94047   -2.81775   -1.70372
C      8.71215   -5.17137    0.23443
C      6.49102   -4.67834    1.08368
C      1.34570   -0.34165   -2.89911
C     -1.17491   -0.99579   -3.87833
C      4.83290   -3.39458   -0.28171
C      6.17293   -4.00375   -0.10574
C      2.26681   -2.22694   -0.62162
C      0.49707   -1.16303   -2.14428
C     -0.77227   -1.50531   -2.64252
C      7.74957   -5.26922    1.24977
C      0.93785    0.16715   -4.13065
C     -0.34470   -0.15125   -4.61974
C      0.91905   -1.63076   -0.79862
C     -1.49758   -0.08115    1.12894
C     -1.65083   -2.41012   -1.82120
C     -2.16574   -1.73510   -0.54125
C     -2.75768   -2.76646    0.42662
C     -0.82746    1.08117    3.17053
C      2.32055    0.43327   -6.03380
C     -1.01433    1.73568   -5.88901
C      6.79751   -8.31580    1.71968
N      0.18184   -1.52703    0.26400
N     -1.08824   -0.93070    0.08698
N      8.07598   -5.95461    2.45529
N     -0.49598    0.32819    1.97014
O     -2.66434    0.31093    1.21523
O      7.90421   -7.83419    4.09808
O      5.78518   -6.56959    3.42201
O      1.79036    1.00195   -4.82498
O     -0.78976    0.31396   -5.83696
S      7.07471   -7.17176    3.09168
H      9.16064   -4.37900   -1.71425
H      6.93234   -3.34566   -2.02108
H      4.62682   -2.77189    1.77873
H      4.68098   -3.87286   -2.38196
H      2.38478   -1.79300    1.48419
H      2.46820   -2.84709   -2.68040
H      9.68938   -5.63225    0.36201
H      5.75739   -4.77215    1.87602
H      2.33337   -0.07431   -2.53556
H     -2.15318   -1.23605   -4.28657
H     -2.51558   -2.74333   -2.40177
H     -1.08982   -3.31163   -1.54665
H     -2.93219   -1.00463   -0.80564
H     -1.98252   -3.45902    0.77129
H     -3.54111   -3.34838   -0.07188
H     -3.20097   -2.26805    1.29111
H      0.08698    1.52490    3.57286
H     -1.29430    0.45682    3.94378
H     -1.52538    1.87872    2.91178
H      2.97396    1.19355   -6.46614
H      1.52133    0.18339   -6.73839
H      2.90617   -0.46609   -5.80604
H     -1.37556    1.94642   -6.89719
H     -0.09104    2.28973   -5.69731
H     -1.77765    2.02400   -5.15691
H      6.11184   -9.08136    2.08670
H      6.34835   -7.76679    0.89129
H      7.75326   -8.75793    1.43580
H      9.04913   -6.23988    2.53767
H      0.34097   -0.24191    1.96117
