65

C      3.35098  -10.13389    7.09005
C      3.45900   -8.60935    5.19073
C      3.04149   -7.47315    4.50315
C      1.48053   -6.97631    6.29313
C      2.88999   -8.94424    6.42935
C      1.88885   -8.11631    6.97731
C      2.05806   -6.65431    5.06138
C      0.25791   -5.24101    4.11804
C      2.43110   -4.44767    3.88923
C      8.07642    0.54019    1.11599
C      6.44415   -1.00402    2.11267
C      5.63057    0.63357    0.49450
C      5.27833   -0.65290    3.03167
C      4.47738    0.96393    1.44403
C      0.19582   -3.92106    3.35090
C     -0.66486   -2.91114    4.12277
C     -0.36946   -4.18722    1.94561
C     10.09601    3.23470   -0.86655
C      8.35306    1.69763    0.15483
C      9.83430    2.07875    0.10463
C      2.37184   -1.19523    3.73907
C      2.10029   -2.29880    2.70963
C      2.94636    0.06493    3.08222
C      1.25832   -8.45694    8.30979
N      3.75379  -11.10716    7.58632
N      1.60434   -5.49609    4.37079
N      1.61478   -3.53961    3.30949
N      6.77206    0.12395    1.24281
N      4.11922   -0.20270    2.24931
O     -0.68473   -5.93876    4.43694
O      8.98767    0.00942    1.75448
F      0.33717   -7.53637    8.67784
F      0.63392   -9.65676    8.27291
F      2.18266   -8.51469    9.29682
S      4.08358   -4.37509    4.04181
H      4.22551   -9.25130    4.76963
H      3.48008   -7.22017    3.54563
H      0.71024   -6.34168    6.71210
H      7.33231   -1.25498    2.69096
H      6.17022   -1.87241    1.49793
H      5.29325   -0.12696   -0.22465
H      5.90520    1.52679   -0.06384
H      5.00910   -1.54789    3.59650
H      5.59757    0.12586    3.75027
H      4.77013    1.82289    2.07889
H      3.60581    1.26718    0.85317
H     -0.73005   -1.96661    3.57535
H     -0.24725   -2.71462    5.11391
H     -1.67307   -3.31543    4.24162
H     -0.45043   -3.25526    1.37928
H     -1.36576   -4.62698    2.03469
H      0.27222   -4.87829    1.39196
H      9.54757    4.13781   -0.57248
H      9.78754    2.97860   -1.88739
H     11.16056    3.48955   -0.89697
H      7.75683    2.56942    0.45429
H      8.00590    1.42466   -0.85031
H     10.42088    1.20092   -0.18242
H     10.17010    2.34540    1.11126
H      3.05125   -1.58366    4.50160
H      1.44515   -0.92151    4.25409
H      1.35412   -1.96734    1.98207
H      3.01540   -2.51985    2.15880
H      3.16537    0.81103    3.86977
H      2.18044    0.50949    2.43426
