50

C     -1.07602    4.33356    4.70983
C      1.85822   -0.73401   -0.50291
C     -1.54431    3.92304    3.45922
C      0.70264   -0.07144   -0.09254
C     -1.24710    3.52112    5.83481
C      4.68684   -2.67293    0.59166
C      1.81982    0.47492    1.98191
C      4.72454   -1.40667   -1.43787
C     -2.36785    1.87091    4.43975
C      5.74368   -3.41881    0.07078
C      3.00569   -0.82212    0.29779
C      4.15754   -1.62865   -0.17736
C      2.97860   -0.18198    1.55583
C     -2.19642    2.68914    3.31308
C      0.67586    0.53390    1.17433
C     -1.89561    2.29359    5.68294
C      5.78820   -2.20464   -1.87900
C      4.15973   -0.12218    2.43324
C     -1.66499    1.43833    1.11016
C     -4.10156    1.80027    1.77002
C     -3.61538    3.08171    1.16384
C     -2.64660    2.21637    1.96263
C      6.43415   -1.98351   -3.22428
N      6.29284   -3.20265   -1.13112
N      5.44557    0.05583    1.99824
N      4.09219   -0.17325    3.76916
N      6.20270    0.11225    3.06584
N      5.37396   -0.02453    4.09982
N     -0.44058    1.21699    1.69563
O     -1.96711    1.04423   -0.01538
Cl    -2.12074    1.25907    7.08367
H     -0.57428    5.29154    4.81570
H      1.85954   -1.23213   -1.46841
H     -1.40678    4.55796    2.58810
H     -0.17080   -0.02899   -0.72809
H     -0.88868    3.83284    6.81063
H      4.27870   -2.91023    1.56991
H      1.82491    0.96502    2.95244
H      4.35808   -0.59777   -2.06390
H     -2.86610    0.91092    4.34332
H      6.16953   -4.23795    0.64926
H     -4.73982    1.85653    2.64633
H     -4.27594    0.96401    1.10177
H     -3.46407    3.10246    0.09009
H     -3.92036    4.01550    1.62575
H      7.50004   -1.76852   -3.09847
H      6.35719   -2.88992   -3.83341
H      5.97111   -1.15508   -3.76674
H      5.69988   -0.02748    5.06030
H     -0.31901    1.59521    2.62719
