55

C     -1.73186    2.78176    0.46289
C     -0.70950    3.23368   -0.39091
C     -1.75596    1.44864    0.85200
C      0.26840    2.35982   -0.85980
C     -0.77074    0.55194    0.39871
C      0.23403    1.01443   -0.46979
C     -0.74986   -0.84472    0.87422
C      0.45148   -1.71132    0.44682
C      0.95378   -1.23885   -0.96219
C      2.30851   -1.83219   -1.35132
C     -0.99835   -1.11265   -4.39233
C     -1.02766   -6.35063    2.91800
C      3.96257    1.32675    3.35715
C      0.01130   -3.20024    0.34550
C      1.53099   -1.58731    1.56175
C     -0.10994   -1.51268   -2.05317
C      0.09916   -0.76913   -3.37861
C     -0.22495   -3.92942    1.67020
C      2.16126   -0.21092    1.78716
O     -1.61395   -1.28257    1.62844
O     -2.00446   -5.59947    0.55726
O      0.43891   -6.32609    0.69323
O      2.67518   -0.78117    4.35399
O      4.50716   -1.17358    2.61655
O      1.22065    0.20304   -0.92887
S     -0.72367   -5.63726    1.28551
S      3.38183   -0.36958    3.12767
H     -2.49234    3.47172    0.81632
H     -0.68318    4.27592   -0.69856
H     -2.52111    1.06593    1.52070
H      1.05524    2.69208   -1.53053
H      2.62939   -1.41115   -2.30587
H      2.25068   -2.91641   -1.46257
H      3.07961   -1.60146   -0.61412
H     -1.01352   -2.18533   -4.61572
H     -0.84554   -0.57708   -5.33499
H     -1.98854   -0.83972   -4.01020
H     -1.31926   -7.38784    2.74247
H     -0.10848   -6.30937    3.50447
H     -1.83930   -5.80374    3.40013
H      4.72204    1.28086    4.13993
H      4.40155    1.68375    2.42420
H      3.12632    1.95114    3.67526
H      0.77520   -3.75365   -0.20540
H     -0.91336   -3.25765   -0.23053
H      2.32415   -2.31191    1.35705
H      1.06585   -1.88301    2.50440
H     -0.12449   -2.58926   -2.24801
H     -1.10722   -1.26367   -1.67255
H      0.10692    0.31032   -3.19961
H      1.07679   -1.01977   -3.80429
H      0.67844   -4.02132    2.27610
H     -1.03012   -3.47052    2.24390
H      2.70290    0.16311    0.91925
H      1.43029    0.53214    2.11396
