17   
Generated by ForceBalance from scan.xyz: Frame 1 of 24
C        2.7625272844   -1.6870184933   -0.7633860464
C        2.0739368245   -0.6351177274   -0.1333350724
C        0.9546769225   -0.1234089819   -0.7968971219
C        0.6401955300   -0.7216489727   -2.0291886807
C        3.5342653844   -0.6105718734    1.7427114567
C        3.6638561273    0.1491585019    3.0577841105
N        2.3979031802   -2.2009684251   -1.9382651763
N        1.3347833593   -1.7181168814   -2.5736373479
O        2.4113644589   -0.0830338510    1.0546827922
F        2.7072217632   -0.2102061333    3.9380703569
F        3.6083074280    1.4806278055    2.8898137843
F        4.8629356697   -0.1589606856    3.6113408346
Cl       0.0438398009    1.1689265819   -0.1027057149
Cl      -0.7282768246   -0.1712251933   -2.9475883185
H        3.6418217632   -2.1426672434   -0.3191550838
H        4.4649008961   -0.4900166267    1.1788718815
H        3.3948747491   -1.6697126009    1.9837287515
17   
Generated by ForceBalance from scan.xyz: Frame 2 of 24
C        2.7230983961   -1.7057350551   -0.7277830284
C        2.0457238003   -0.6310089167   -0.1246200828
C        0.9549342560   -0.1000375939   -0.8199121091
C        0.6542140161   -0.7031338791   -2.0531993092
C        3.4564179707   -0.6248226576    1.7876829767
C        3.5766989979    0.1278907883    3.1146194189
N        2.3732458975   -2.2230198339   -1.9057572617
N        1.3371903579   -1.7217414899   -2.5707967734
O        2.3681584745   -0.0730559594    1.0650614031
F        2.7899912797   -0.4198299179    4.0669634752
F        3.2740156754    1.4293453206    3.0076673761
F        4.8567946395    0.0236780619    3.5530910202
Cl       0.0598139876    1.2209445752   -0.1601469575
Cl      -0.6789386208   -0.1297837920   -3.0088623318
H        3.5808118621   -2.1775002877   -0.2590054869
H        4.4074372641   -0.5442437646    1.2521194612
H        3.2799751662   -1.6791422757    2.0259094396
17   
Generated by ForceBalance from scan.xyz: Frame 3 of 24
C        2.6876494322   -1.7327105829   -0.7095730477
C        2.0363057356   -0.6303920498   -0.1277899536
C        0.9738816819   -0.0723176992   -0.8457740104
C        0.6724462064   -0.6783974844   -2.0773248167
C        3.4251525372   -0.6416418448    1.7991672130
C        3.5732569343    0.1295389524    3.1222510615
N        2.3392143341   -2.2509030009   -1.8876648641
N        1.3301252152   -1.7239017491   -2.5737885285
O        2.3562666660   -0.0705375849    1.0616289018
F        3.0414275987   -0.5672577199    4.1533210234
F        3.0043624593    1.3412744348    3.0931142636
F        4.8920452150    0.2883550350    3.3988093864
Cl       0.1121513021    1.2838778072   -0.2136554836
Cl      -0.6268515699   -0.0727608162   -3.0594112715
H        3.5220597211   -2.2273327164   -0.2227468080
H        4.3757639304   -0.5931241775    1.2598109060
H        3.2160538020   -1.6869593207    2.0480567248
17   
Generated by ForceBalance from scan.xyz: Frame 4 of 24
C        2.6563002617   -1.7669917327   -0.6913199179
C        2.0373490769   -0.6351261783   -0.1309025568
C        1.0057336287   -0.0475231585   -0.8702566754
C        0.6992660080   -0.6566153419   -2.0989895930
C        3.4031531782   -0.6720698186    1.8124875718
C        3.5810428531    0.1271458923    3.1208679727
N        2.3052243640   -2.2859004022   -1.8683237041
N        1.3253184783   -1.7309519690   -2.5744044323
O        2.3592053394   -0.0737381532    1.0570148329
F        3.3542555935   -0.6690404973    4.1930792186
F        2.7619316481    1.1828874195    3.2078849072
F        4.8553029107    0.5761944982    3.2232380095
Cl       0.1853073818    1.3462608168   -0.2654914823
Cl      -0.5638042420   -0.0160128749   -3.1059392439
H        3.4653945271   -2.2859525367   -0.1874457807
H        4.3496403669   -0.6480850669    1.2647930969
H        3.1551630027   -1.7046870095    2.0745152573
17   
Generated by ForceBalance from scan.xyz: Frame 5 of 24
C        2.6215055722   -1.7955506904   -0.6699318959
C        2.0372587305   -0.6362733230   -0.1283882358
C        1.0395117956   -0.0173184656   -0.8884754775
C        0.7294912382   -0.6255933563   -2.1167008984
C        3.3828984840   -0.7007722574    1.8302795820
C        3.5900913988    0.1330506450    3.1094763106
N        2.2694728484   -2.3114831415   -1.8479337576
N        1.3220504293   -1.7265366114   -2.5738358687
O        2.3604254787   -0.0784362660    1.0605464967
F        3.6966080824   -0.6942929031    4.1775458575
F        2.5764311432    0.9774108374    3.3491165017
F        4.7287848499    0.8585054851    3.0386809160
Cl       0.2622891307    1.4111777905   -0.3080035781
Cl      -0.4933435096    0.0526042473   -3.1484128685
H        3.4020978564   -2.3405094048   -0.1487920415
H        4.3228990528   -0.7010056985    1.2709219879
H        3.0993914723   -1.7175948430    2.1146818659
17   
Generated by ForceBalance from scan.xyz: Frame 6 of 24
C        2.9983698526   -1.0525646237   -1.0607950459
C        2.0280380065   -0.7592187352   -0.0857064277
C        0.6891387456   -0.8426003296   -0.4810174532
C        0.4600303357   -1.2125116581   -1.8172478734
C        3.6488545837   -0.2996017396    1.5939839590
C        3.6582161059    0.1639905606    3.0550353799
N        2.6974884307   -1.3972983615   -2.3131084451
N        1.4263800773   -1.4777686780   -2.6935344890
O        2.2869537185   -0.4096132034    1.1947090908
F        4.7845945815   -0.2921091225    3.6547992206
F        2.6096390161   -0.3100613093    3.7475619960
F        3.6477298339    1.5102543566    3.1498911033
Cl      -0.5747025524   -0.5010962754    0.6448924891
Cl      -1.1624339929   -1.3497241162   -2.4241845072
H        4.0605975235   -1.0142019635   -0.8411790660
H        4.1472943642    0.4676511724    0.9938398306
H        4.1660375436   -1.2602123556    1.5213085837
17   
Generated by ForceBalance from scan.xyz: Frame 7 of 24
C        2.9968044624   -1.0961193199   -1.0523204085
C        2.0280341541   -0.7592945504   -0.0899155439
C        0.6902918857   -0.8047551622   -0.4946431577
C        0.4604585299   -1.1851360937   -1.8278813836
C        3.6494002605   -0.3301831219    1.5979262006
C        3.6498033029    0.1385518051    3.0497028474
N        2.6949032264   -1.4476581046   -2.3024086026
N        1.4248225295   -1.4928429358   -2.6923152704
O        2.2891696366   -0.4013811090    1.1877336595
F        4.8825738621   -0.0693233565    3.5719570004
F        2.7654735674   -0.5432236013    3.7996319121
F        3.3633297620    1.4512027332    3.1531238774
Cl      -0.5708772483   -0.4078782808    0.6160756000
Cl      -1.1605608386   -1.2785898261   -2.4468200693
H        4.0578998480   -1.0881208677   -0.8239362356
H        4.1884566564    0.4124140103    1.0013037187
H        4.1386009333   -1.3071157155    1.5431003148
17   
Generated by ForceBalance from scan.xyz: Frame 8 of 24
C        2.9960246142   -1.1227481839   -1.0414794609
C        2.0311186474   -0.7398819356   -0.0926609671
C        0.6951055232   -0.7606908209   -0.5046099313
C        0.4632566644   -1.1647308222   -1.8306093334
C        3.6508876818   -0.3259405352    1.5993826651
C        3.6557154271    0.1460777074    3.0469107138
N        2.6927825337   -1.4944997784   -2.2853445706
N        1.4241954812   -1.5160436853   -2.6820767115
O        2.2950822423   -0.3572667870    1.1774835592
F        4.9373375114    0.1798169429    3.4843657872
F        2.9617968797   -0.6834722495    3.8487821153
F        3.1380331411    1.3824462258    3.1741287752
Cl      -0.5619759567   -0.3074541495    0.5889873310
Cl      -1.1560722535   -1.2305788775   -2.4573407272
H        4.0556875653   -1.1358961473   -0.8068053844
H        4.2405606621    0.3807105452    1.0066337640
H        4.1075801754   -1.3201426192    1.5614490722
17   
Generated by ForceBalance from scan.xyz: Frame 9 of 24
C        2.9887356985   -1.1491832738   -1.0273437939
C        2.0240001690   -0.7185477362   -0.0992504802
C        0.6921720516   -0.7198459979   -0.5248503377
C        0.4630032839   -1.1537938819   -1.8418668755
C        3.6307435538   -0.3198564603    1.6066357344
C        3.6396055752    0.1432175058    3.0594380955
N        2.6888244221   -1.5475626581   -2.2638080986
N        1.4240651661   -1.5502454955   -2.6731533744
O        2.2843435635   -0.3037374907    1.1618300855
F        4.9174110763    0.4133495264    3.4193647590
F        3.1581408246   -0.8009479030    3.8917042386
F        2.9165006408    1.2640790678    3.2362973411
Cl      -0.5643937399   -0.2083863994    0.5431355357
Cl      -1.1513328966   -1.1987365405   -2.4832448409
H        4.0455085599   -1.1799944035   -0.7816832831
H        4.2734409480    0.3494104454    1.0256606988
H        4.0490660635   -1.3317498151    1.5769080469
17   
Generated by ForceBalance from scan.xyz: Frame 10 of 24
C        2.9817644900   -1.1823384407   -1.0153013923
C        2.0206816789   -0.7072595970   -0.1052000225
C        0.6933253294   -0.6780549216   -0.5439611629
C        0.4647837634   -1.1296122869   -1.8550834310
C        3.6199832952   -0.3243987833    1.6091049166
C        3.6439473561    0.1547515799    3.0634962164
N        2.6822299453   -1.5946873516   -2.2473138420
N        1.4219407268   -1.5688011664   -2.6692541972
O        2.2794363782   -0.2760865108    1.1508231351
F        4.8621390573    0.6835734493    3.3323732356
F        3.4270690575   -0.8589511316    3.9273645082
F        2.7257212090    1.1068409592    3.3013912769
Cl      -0.5581570926   -0.1110834335    0.5017947414
Cl      -1.1438178053   -1.1400940503   -2.5121024238
H        4.0348946505   -1.2382844249   -0.7588460570
H        4.2942871615    0.3068889038    1.0221729302
H        4.0056012586   -1.3496107295    1.5949808861
17   
Generated by ForceBalance from scan.xyz: Frame 11 of 24
C        2.9738301530   -1.2308301836   -0.9960068527
C        2.0190180046   -0.7136194314   -0.1022412880
C        0.6990241847   -0.6413900571   -0.5585113661
C        0.4708981337   -1.0969994523   -1.8682114445
C        3.6100699208   -0.3695587062    1.6270220719
C        3.6479206869    0.1299727717    3.0830358548
N        2.6750213851   -1.6439242075   -2.2280270602
N        1.4218557039   -1.5775825571   -2.6661814092
O        2.2757545657   -0.2809492770    1.1536805798
F        4.7349349661    0.9187274364    3.2631554711
F        3.7426393746   -0.9015777148    3.9516934525
F        2.5641576658    0.8490156535    3.4119853487
Cl      -0.5444138262   -0.0202479207    0.4658792815
Cl      -1.1287675828   -1.0567862126   -2.5456408842
H        4.0210731981   -1.3217660072   -0.7260408137
H        4.3010936001    0.2362952421    1.0333932236
H        3.9593150619   -1.4070675828    1.6228622168
17   
Generated by ForceBalance from scan.xyz: Frame 12 of 24
C        2.9638511342   -1.2810543727   -0.9877454472
C        2.0198799598   -0.7197696059   -0.1089697312
C        0.7089015750   -0.6003287900   -0.5814641856
C        0.4781846946   -1.0573345617   -1.8901151547
C        3.6078078849   -0.4151182900    1.6318898388
C        3.6556497086    0.1294069492    3.0754915159
N        2.6632371107   -1.6921984905   -2.2200051549
N        1.4187561925   -1.5808004718   -2.6733579013
O        2.2778810264   -0.2890017951    1.1470769694
F        4.5338984330    1.1573016957    3.1605391976
F        4.0884014039   -0.8334993160    3.9245716814
F        2.4669973078    0.5632849448    3.5136798381
Cl      -0.5211360232    0.0766413293    0.4236676736
Cl      -1.1109556226   -0.9607962565   -2.5864558617
H        4.0035066226   -1.4110895502   -0.7048230068
H        4.3032996491    0.1691617682    1.0226072681
H        3.9205097981   -1.4630151915    1.6503467547
17   
Generated by ForceBalance from scan.xyz: Frame 13 of 24
C        2.9583740993   -1.3265401998   -0.9623655362
C        2.0214703325   -0.7254163690   -0.1025108720
C        0.7241272356   -0.5594533540   -0.5980739509
C        0.4988278259   -1.0139409311   -1.9085521736
C        3.5985585483   -0.4510702420    1.6560427418
C        3.6400870787    0.1480762026    3.0737503701
N        2.6637953131   -1.7319181510   -2.1979614932
N        1.4323646829   -1.5759111356   -2.6733293363
O        2.2738937201   -0.3018286117    1.1568742953
F        4.2444154043    1.3590589308    3.0699558165
F        4.3830902113   -0.6566773562    3.8748936506
F        2.4287815366    0.2818618321    3.6267921416
Cl      -0.4967561879    0.1679019142    0.3828217128
Cl      -1.0735038348   -0.8615705789   -2.6325823475
H        3.9869877010   -1.4957176422   -0.6602511848
H        4.2975968938    0.1124822124    1.0315463324
H        3.8843099002   -1.5049522042    1.7096063182
17   
Generated by ForceBalance from scan.xyz: Frame 14 of 24
C        2.9483949324   -1.3665518496   -0.9419712980
C        2.0261882048   -0.7233968179   -0.0967804248
C        0.7394869843   -0.5178540727   -0.6046229502
C        0.5095475602   -0.9801915620   -1.9116208445
C        3.6005339396   -0.4800247066    1.6710574566
C        3.6353259197    0.1421089540    3.0702941299
N        2.6501379691   -1.7763323682   -2.1751413912
N        1.4285376113   -1.5834847486   -2.6623120246
O        2.2843464687   -0.2957350645    1.1598914720
F        3.9545740170    1.4539848336    3.0182086931
F        4.6081266306   -0.4719733050    3.7907269692
F        2.4776925677    0.0099311336    3.7316871041
Cl      -0.4630355901    0.2635861435    0.3572762276
Cl      -1.0506582900   -0.7819976619   -2.6504562426
H        3.9681163443   -1.5673766325   -0.6291072451
H        4.3185424021    0.0598314081    1.0466427309
H        3.8556854092   -1.5406297832    1.7457495413
17   
Generated by ForceBalance from scan.xyz: Frame 15 of 24
C        2.9374516737   -1.4083386765   -0.9313706709
C        2.0303634960   -0.7272123163   -0.0998625316
C        0.7549498167   -0.4863111230   -0.6200801575
C        0.5180936047   -0.9544213247   -1.9238871303
C        3.5974360898   -0.5165432113    1.6793880043
C        3.6265151809    0.1080827777    3.0704160894
N        2.6345187014   -1.8211627143   -2.1623558875
N        1.4231004023   -1.5946581887   -2.6607531539
O        2.2939585085   -0.2948004691    1.1541263850
F        3.6737624795    1.4545873704    3.0102356255
F        4.7509828566   -0.3104531596    3.7030661162
F        2.5682072775   -0.2481637614    3.8161156646
Cl      -0.4283669558    0.3433189672    0.3248317295
Cl      -1.0299835298   -0.7140749787   -2.6758399372
H        3.9480519157   -1.6380230743   -0.6088338392
H        4.3488934918   -0.0095498245    1.0662558879
H        3.8192781163   -1.5841149349    1.7679633122
17   
Generated by ForceBalance from scan.xyz: Frame 16 of 24
C        2.9282587791   -1.4266732572   -0.9224006710
C        2.0366043291   -0.6996987954   -0.1134149503
C        0.7682639418   -0.4422534335   -0.6424329009
C        0.5229486820   -0.9422138304   -1.9329075873
C        3.5967505304   -0.4944171409    1.6703278855
C        3.6287398780    0.1320480239    3.0576009517
N        2.6174971464   -1.8676046690   -2.1415032657
N        1.4127540924   -1.6257289168   -2.6489735998
O        2.3106729503   -0.2347291216    1.1268308479
F        3.4279885608    1.4626003538    3.0133778786
F        4.8482644650   -0.0918412402    3.6031214405
F        2.7011831763   -0.4048443608    3.8727264908
Cl      -0.3960099202    0.4431189659    0.2752702023
Cl      -1.0171379010   -0.6855321133   -2.6954841093
H        3.9326700368   -1.6705432024   -0.5910359551
H        4.3887651901   -0.0366213344    1.0690000570
H        3.7799926931   -1.5686038363    1.7755185363
17   
Generated by ForceBalance from scan.xyz: Frame 17 of 24
C        2.9187606288   -1.4443028419   -0.9127419895
C        2.0471246483   -0.6713982401   -0.1250475097
C        0.7852394161   -0.3968656629   -0.6609805600
C        0.5269651195   -0.9271652801   -1.9366820164
C        3.6041980617   -0.4687681381    1.6591674262
C        3.6502018472    0.1595542687    3.0477313668
N        2.5962637817   -1.9123251156   -2.1187202696
N        1.3981319370   -1.6537178927   -2.6331154616
O        2.3352178888   -0.1741920771    1.0997115638
F        3.2145836477    1.4311721508    3.0469730244
F        4.9270639580    0.1400334001    3.4952291983
F        2.8932798778   -0.5329289655    3.9261275517
Cl      -0.3554585839    0.5438923752    0.2307861391
Cl      -1.0062098351   -0.6524741826   -2.7067857848
H        3.9169096694   -1.7041163291   -0.5747310327
H        4.4298090843   -0.0638910000    1.0647548403
H        3.7484510716   -1.5479251549    1.7790565714
17   
Generated by ForceBalance from scan.xyz: Frame 18 of 24
C        2.9028149224   -1.4766639787   -0.8916840099
C        2.0481927603   -0.6645327877   -0.1250910186
C        0.8000512020   -0.3600912746   -0.6770465537
C        0.5355368503   -0.9029275765   -1.9461120881
C        3.5938975573   -0.4799687355    1.6691421639
C        3.6561930675    0.1520363145    3.0626211587
N        2.5754453817   -1.9540628243   -2.0927568775
N        1.3902322451   -1.6674592805   -2.6220735590
O        2.3396033374   -0.1556430950    1.0941912529
F        2.9884176419    1.3137999143    3.1346108846
F        4.9486213643    0.3690581682    3.3980364758
F        3.1276178105   -0.6763708687    3.9936553894
Cl      -0.3180831829    0.6301837075    0.1891894825
Cl      -0.9818485686   -0.5938695973   -2.7344121581
H        3.8896871270   -1.7612304927   -0.5408319488
H        4.4395296477   -0.1145237984    1.0778477429
H        3.7028782213   -1.5621281915    1.7976558994
17   
Generated by ForceBalance from scan.xyz: Frame 19 of 24
C        2.8759551785   -1.5131049749   -0.8725579286
C        2.0370120070   -0.6671020637   -0.1253163210
C        0.8078645692   -0.3273619470   -0.6993238629
C        0.5455653154   -0.8725802492   -1.9677264761
C        3.5663470152   -0.5074113414    1.6844736758
C        3.6514622145    0.1521457801    3.0727061081
N        2.5519819381   -1.9901199503   -2.0747791949
N        1.3849415864   -1.6701306983   -2.6245754603
O        2.3242914580   -0.1586354798    1.0951110366
F        2.7685327396    1.1474013232    3.2336187583
F        4.8968547301    0.6435831042    3.2706314191
F        3.4206254491   -0.7585445796    4.0494319470
Cl      -0.2907798457    0.7061325770    0.1410804192
Cl      -0.9489117084   -0.5218082156   -2.7818508758
H        3.8473290588   -1.8271650208   -0.5042575735
H        4.4179949802   -0.1712375972    1.0852385464
H        3.6430185393   -1.5897831614    1.8282959568
17   
Generated by ForceBalance from scan.xyz: Frame 20 of 24
C        2.8533536689   -1.5500932195   -0.8592598005
C        2.0351681797   -0.6690196689   -0.1295103292
C        0.8265276630   -0.2905259254   -0.7228791240
C        0.5612021464   -0.8353679246   -1.9907193702
C        3.5525555036   -0.5407715274    1.6939074570
C        3.6623174023    0.1606403092    3.0644994566
N        2.5281306183   -2.0240854723   -2.0623712166
N        1.3806391922   -1.6670592703   -2.6302582709
O        2.3223522042   -0.1632844056    1.0918197832
F        2.6101516563    0.9416790653    3.3409612597
F        4.7773449466    0.9284315689    3.1097554197
F        3.7722902626   -0.7581572061    4.0540580917
Cl      -0.2455274492    0.7875899250    0.0955337155
Cl      -0.9092086376   -0.4381207093   -2.8272136851
H        3.8076332642   -1.8963946495   -0.4755083026
H        4.4023971230   -0.2283010286    1.0803047118
H        3.5931583447   -1.6213718850    1.8586368333
17   
Generated by ForceBalance from scan.xyz: Frame 21 of 24
C        2.8361788325   -1.5850044074   -0.8371558814
C        2.0405279013   -0.6681002873   -0.1266929115
C        0.8535036830   -0.2537326720   -0.7395117339
C        0.5854074115   -0.8025679361   -2.0050417415
C        3.5417822113   -0.5739259746    1.7143663289
C        3.6604855450    0.1633635282    3.0618624776
N        2.5097910633   -2.0602024482   -2.0394324414
N        1.3827935617   -1.6692235090   -2.6257206257
O        2.3296940536   -0.1611732116    1.0934117434
F        2.5036603573    0.7024835629    3.4686388108
F        4.5694539203    1.1649995964    2.9778930046
F        4.0955888393   -0.6924689675    4.0159513786
Cl      -0.1903530527    0.8698705825    0.0539157278
Cl      -0.8595100060   -0.3629927097   -2.8644998193
H        3.7727460533   -1.9605824014   -0.4375589826
H        4.3961045153   -0.2838307198    1.0962176886
H        3.5434610254   -1.6516415132    1.8990305701
17   
Generated by ForceBalance from scan.xyz: Frame 22 of 24
C        2.8156260582   -1.6190325840   -0.8140700744
C        2.0442372998   -0.6698775283   -0.1194661423
C        0.8790238047   -0.2197485652   -0.7484085698
C        0.6060728635   -0.7692117666   -2.0126893440
C        3.5338832339   -0.6051655948    1.7340968150
C        3.6561655027    0.1605907730    3.0562395645
N        2.4864351856   -2.0922438298   -2.0162922139
N        1.3798764312   -1.6675050914   -2.6179798140
O        2.3373105616   -0.1657108462    1.1006784337
F        2.4648060917    0.4502179442    3.6000029422
F        4.3141826186    1.3298383537    2.8764175045
F        4.3702942511   -0.5771666228    3.9372774698
Cl      -0.1340625161    0.9453349323    0.0248072886
Cl      -0.8136181837   -0.2873615158   -2.8912907279
H        3.7340997120   -2.0235300058   -0.4007845466
H        4.3973224003   -0.3430372704    1.1155826616
H        3.5050790661   -1.6786029120    1.9413920409
17   
Generated by ForceBalance from scan.xyz: Frame 23 of 24
C        2.7929731127   -1.6509684318   -0.7937377923
C        2.0469316415   -0.6685827909   -0.1180678608
C        0.9015796992   -0.1895665581   -0.7616234213
C        0.6206651838   -0.7471884729   -2.0206739846
C        3.5251561791   -0.6249903962    1.7457923517
C        3.6436793226    0.1470142819    3.0564257978
N        2.4577643492   -2.1294988537   -1.9921062585
N        1.3696668341   -1.6778456545   -2.6078822860
O        2.3478164237   -0.1589249502    1.0978633920
F        2.4797569189    0.1967438334    3.7259083431
F        4.0485004156    1.4174327050    2.8417135106
F        4.5681004972   -0.4560630905    3.8394436812
Cl      -0.0792040277    1.0177583187   -0.0119101391
Cl      -0.7762020201   -0.2320569312   -2.9167480364
H        3.6950267217   -2.0786187550   -0.3676709572
H        4.4084379536   -0.3990903706    1.1404089529
H        3.4657148538   -1.6946805582    1.9679476774
17   
Generated by ForceBalance from scan.xyz: Frame 24 of 24
C        2.7791290751   -1.6730690647   -0.7795312208
C        2.0636836973   -0.6549684161   -0.1242315187
C        0.9300634714   -0.1585608341   -0.7751288227
C        0.6285829259   -0.7359329945   -2.0205071775
C        3.5342470642   -0.6270684319    1.7453477266
C        3.6529304690    0.1333105768    3.0590844201
N        2.4258475200   -2.1691110860   -1.9654997998
N        1.3488369721   -1.7006761283   -2.5882848350
O        2.3865266632   -0.1235994750    1.0769408341
F        2.5658616317   -0.0316920877    3.8357554445
F        3.8289254839    1.4536374131    2.8606810929
F        4.7288943789   -0.3373682607    3.7340063334
Cl      -0.0133955337    1.0927204795   -0.0500902015
Cl      -0.7561114502   -0.2012531623   -2.9240110542
H        3.6710276134   -2.1153810358   -0.3470843579
H        4.4454766129   -0.4514680719    1.1645534526
H        3.4329596389   -1.6929773967    1.9732493747
