27   
Generated by ForceBalance from scan.xyz: Frame 1 of 24
C        1.4185280167   -0.3636343950   -0.2970668495
C       -0.7011981496    0.4663118678   -1.4876685161
C        1.0727415289    2.1058802184   -0.6945615398
C        2.9714216039    3.5931993823    0.1881094851
C        2.7066613118    4.0093395448   -1.2184155272
C        0.7783071233    0.6703906606   -1.2137759625
C        2.4789362659    2.5467508276   -0.8104392428
C       -0.8178600030   -0.7335311554    0.6335273018
C       -1.5150465147   -2.0335129564    1.0015092457
C       -0.9700215314    0.3507754469    1.6924896966
O        2.6092088428   -0.5770022075   -0.2839852501
O       -1.2443290232    0.9114512844   -2.4679418623
O        0.1795616732    2.7983252459   -0.2343568032
O        0.5854540638   -1.0779575101    0.4921134376
O       -1.3907333070   -0.3159196374   -0.6168193371
H        3.9984005302    3.4837615729    0.5210712837
H        2.2546063138    3.8959185778    0.9443324382
H        1.8097241036    4.5875986747   -1.4143767395
H        3.5448317049    4.1922363137   -1.8831043056
H        1.2904711674    0.5808442177   -2.1750649093
H        3.1920707860    1.8082452973   -1.1564045819
H       -1.1605085453   -2.8404928792    0.3570708222
H       -2.5944653736   -1.9139773914    0.8940407685
H       -1.2831180360   -2.2961710557    2.0365408860
H       -0.5439310792    1.2987682129    1.3631488340
H       -0.4765781926    0.0270496920    2.6117964019
H       -2.0326196950    0.5098066770    1.8941900187
27   
Generated by ForceBalance from scan.xyz: Frame 2 of 24
C        1.4165501171   -0.3465434491   -0.3642291371
C       -0.7144221453    0.5110640651   -1.5145040819
C        1.0794802857    2.1301300772   -0.7233542614
C        2.9985959117    3.6003852091    0.1448761740
C        2.7116555574    4.0341976609   -1.2519060653
C        0.7694987551    0.7036127208   -1.2579535688
C        2.4851621392    2.5676302894   -0.8572038738
C       -0.8107473138   -0.7236652217    0.5882144891
C       -1.5114484075   -2.0276926762    0.9549086438
C       -0.9333620486    0.3462197462    1.6655368493
O        2.6068154652   -0.5633022542   -0.3682119031
O       -1.2702545422    0.9765824796   -2.4779675386
O        0.1973942554    2.8194223370   -0.2377018369
O        0.5904729372   -1.0717386379    0.4217809353
O       -1.3953948960   -0.2855247795   -0.6490381623
H        4.0307522847    3.4834687104    0.4587475842
H        2.2959597236    3.8966508476    0.9167908868
H        1.8137896647    4.6179773504   -1.4260206973
H        3.5391785864    4.2218472594   -1.9285078721
H        1.2683422182    0.6240120114   -2.2270567136
H        3.1894396968    1.8307088716   -1.2240285394
H       -0.9997528649   -2.8716029040    0.4888120981
H       -2.5535103177   -1.9878853469    0.6338832051
H       -1.4793349996   -2.1765874521    2.0369141569
H       -0.5151384369    1.2989864191    1.3398827099
H       -0.4184627997    0.0067875417    2.5671517440
H       -1.9908388108    0.5021223867    1.8963281637
27   
Generated by ForceBalance from scan.xyz: Frame 3 of 24
C        1.4154468995   -0.3335018131   -0.4015797621
C       -0.7287531104    0.5430177885   -1.5127422823
C        1.0845496691    2.1484989433   -0.7369144962
C        3.0222026565    3.6040306777    0.1139328400
C        2.7163083938    4.0500675574   -1.2749763462
C        0.7595861851    0.7269727896   -1.2763276844
C        2.4898794928    2.5813227072   -0.8886075812
C       -0.8006800177   -0.7193022473    0.5757337914
C       -1.5067901047   -2.0260802791    0.9466769886
C       -0.9042780309    0.3478326406    1.6572512869
O        2.6055639034   -0.5507469266   -0.4205138316
O       -1.2965066322    1.0250566803   -2.4609927470
O        0.2129704323    2.8382409930   -0.2334094388
O        0.5976837570   -1.0690738613    0.3838392672
O       -1.3994310718   -0.2666713195   -0.6509579635
H        4.0584113504    3.4805704292    0.4115075936
H        2.3322782312    3.8969052124    0.8985127322
H        1.8182852191    4.6387449229   -1.4308339167
H        3.5343871850    4.2399578078   -1.9623583723
H        1.2428747866    0.6526313958   -2.2538000491
H        3.1856709564    1.8445389918   -1.2714679503
H       -0.8694631480   -2.8772719349    0.7021736768
H       -2.4520463430   -2.1000277112    0.4075426926
H       -1.7102833261   -2.0592135857    2.0193829939
H       -0.4647379261    1.2934888521    1.3391278178
H       -0.3997065761   -0.0075270930    2.5588949530
H       -1.9590943398    0.5239673530    1.8851982220
27   
Generated by ForceBalance from scan.xyz: Frame 4 of 24
C        1.4108036041   -0.3251258884   -0.4454074236
C       -0.7495112530    0.5690803696   -1.5106440479
C        1.0822793675    2.1614875345   -0.7493401542
C        3.0401072597    3.5984920996    0.0853404383
C        2.7124269228    4.0622325746   -1.2928001547
C        0.7433240467    0.7463384347   -1.2972689381
C        2.4867420976    2.5899410055   -0.9201937436
C       -0.7884544785   -0.7212785858    0.5636311694
C       -1.4963524006   -2.0306957239    0.9330918720
C       -0.8876957616    0.3420561075    1.6491015007
O        2.5997894711   -0.5452676004   -0.4847741336
O       -1.3325497137    1.0659901564   -2.4419419728
O        0.2219735111    2.8495887757   -0.2247753974
O        0.6045174747   -1.0690001258    0.3452512729
O       -1.4058964823   -0.2537459490   -0.6509618689
H        4.0805545874    3.4671390649    0.3641564176
H        2.3647036842    3.8847213935    0.8848684694
H        1.8142362954    4.6561464694   -1.4262552762
H        3.5194459730    4.2572237367   -1.9917245843
H        1.2097049880    0.6807398546   -2.2835646626
H        3.1729337295    1.8549374363   -1.3232821628
H       -0.7777746918   -2.8515347553    0.9366732044
H       -2.2764073849   -2.2451704423    0.2011365528
H       -1.9539230740   -1.9628934073    1.9219107495
H       -0.4118493573    1.2761475949    1.3500029925
H       -0.4181608143   -0.0322579473    2.5624958860
H       -1.9425576273    0.5471785855    1.8487391808
27   
Generated by ForceBalance from scan.xyz: Frame 5 of 24
C        1.3997565739   -0.3360737985   -0.4382964489
C       -0.7689832256    0.5738712471   -1.4720629964
C        1.0785644444    2.1531738305   -0.7193207315
C        3.0518366637    3.5766905416    0.1027495890
C        2.7088181367    4.0525731681   -1.2675003029
C        0.7271715062    0.7437953371   -1.2745247625
C        2.4824802119    2.5781353207   -0.9037842294
C       -0.7861324552   -0.7302304244    0.5951087764
C       -1.4936167672   -2.0385553041    0.9585797457
C       -0.8954993179    0.3332605560    1.6794909081
O        2.5863936728   -0.5633649246   -0.4954497504
O       -1.3597273978    1.0816744811   -2.3928822219
O        0.2274608596    2.8399485995   -0.1784763258
O        0.6008044196   -1.0776883284    0.3636955573
O       -1.4166462156   -0.2546923398   -0.6131036467
H        4.0951813360    3.4395354146    0.3676131446
H        2.3874206707    3.8588775636    0.9128479942
H        1.8111593692    4.6506076054   -1.3851896963
H        3.5078512339    4.2503316667   -1.9747691605
H        1.1822176878    0.6838384294   -2.2664599104
H        3.1611089307    1.8441797230   -1.3213602237
H       -0.7519248293   -2.7925901579    1.2270768211
H       -2.0472895927   -2.4044872216    0.0918249944
H       -2.1906703179   -1.8953992305    1.7856812059
H       -0.3942826706    1.2586164371    1.3950167090
H       -0.4584922087   -0.0481480160    2.6064253877
H       -1.9515417563    0.5565760758    1.8483636027
27   
Generated by ForceBalance from scan.xyz: Frame 6 of 24
C        1.3907799275   -0.3305514132   -0.4908526681
C       -0.7892928537    0.5982347678   -1.4832784054
C        1.0742530171    2.1618447131   -0.7390534349
C        3.0640659971    3.5685368131    0.0718941195
C        2.7034174621    4.0620947240   -1.2875319437
C        0.7103009413    0.7604564167   -1.3060596105
C        2.4768854193    2.5841794586   -0.9384016235
C       -0.7795714594   -0.7211167582    0.5730142132
C       -1.4812716975   -2.0288448321    0.9250193986
C       -0.8784452185    0.3288871462    1.6717211610
O        2.5748849885   -0.5640242633   -0.5707041333
O       -1.3904930077    1.1148205991   -2.3922886017
O        0.2332073620    2.8445762947   -0.1776674576
O        0.6015378060   -1.0726691163    0.3199624544
O       -1.4278531314   -0.2317191046   -0.6191635489
H        4.1105545152    3.4245847885    0.3202281330
H        2.4122276100    3.8432459079    0.8946823744
H        1.8063783768    4.6646447768   -1.3852011848
H        3.4930535347    4.2655993492   -2.0036693157
H        1.1508973575    0.7100053959   -2.3049731108
H        3.1468345770    1.8529585048   -1.3744310146
H       -0.7763322241   -2.6946514176    1.4265178274
H       -1.8078117850   -2.5212906511    0.0062985504
H       -2.3507644000   -1.8492452169    1.5591612813
H       -0.3713111129    1.2537979418    1.3963240144
H       -0.4405930454   -0.0657891791    2.5927152424
H       -1.9319327374    0.5583858082    1.8465733811
27   
Generated by ForceBalance from scan.xyz: Frame 7 of 24
C        1.3836477539   -0.3268336378   -0.5427091936
C       -0.8062965913    0.6146700529   -1.4998318981
C        1.0669891791    2.1676366877   -0.7597866479
C        3.0683121239    3.5610431005    0.0473377561
C        2.6962037318    4.0700789466   -1.3032122043
C        0.6955472695    0.7732481647   -1.3389679111
C        2.4686302210    2.5891302217   -0.9677518384
C       -0.7733477558   -0.7157508770    0.5486869569
C       -1.4689408891   -2.0246589997    0.8876155119
C       -0.8545667625    0.3158834999    1.6661765766
O        2.5646048945   -0.5672333355   -0.6441883398
O       -1.4173972289    1.1336792503   -2.4009210820
O        0.2325117694    2.8458283645   -0.1832447451
O        0.6035565580   -1.0678129648    0.2777627160
O       -1.4371835221   -0.2128871927   -0.6284672425
H        4.1168102394    3.4118241296    0.2838150826
H        2.4252139629    3.8286841104    0.8792828527
H        1.8000309039    4.6761182602   -1.3860589384
H        3.4796628060    4.2790100967   -2.0245493066
H        1.1249392306    0.7337457578   -2.3431452937
H        3.1324050844    1.8609979576   -1.4181857503
H       -0.8552387221   -2.5897432415    1.5922886399
H       -1.5844290438   -2.6201179643   -0.0208371223
H       -2.4540003344   -1.8332182130    1.3169479142
H       -0.3566652292    1.2466716157    1.3939714204
H       -0.3954876330   -0.0908605588    2.5711353461
H       -1.9046476305    0.5398191887    1.8670224473
27   
Generated by ForceBalance from scan.xyz: Frame 8 of 24
C        1.3742975985   -0.3204806827   -0.6142426261
C       -0.8229077748    0.6361768804   -1.5373076312
C        1.0584718160    2.1772075576   -0.7955934573
C        3.0665214789    3.5594363340    0.0137568875
C        2.6841823491    4.0858360966   -1.3272345329
C        0.6803270436    0.7910734708   -1.3897166945
C        2.4585969352    2.6007650459   -1.0090184367
C       -0.7734366628   -0.7128536858    0.4969878246
C       -1.4675045493   -2.0227560951    0.8261920960
C       -0.8194456555    0.2961895428    1.6370459437
O        2.5538194841   -0.5612354423   -0.7323504557
O       -1.4412451725    1.1612279297   -2.4296724379
O        0.2292164995    2.8486693042   -0.2036567107
O        0.6009767302   -1.0690173134    0.2041935925
O       -1.4488062176   -0.1922098290   -0.6620991132
H        4.1167251900    3.4068008376    0.2402628207
H        2.4299412756    3.8166247593    0.8539700996
H        1.7876803414    4.6932259494   -1.3953571339
H        3.4620996277    4.3036583623   -2.0519296495
H        1.0997825688    0.7646614900   -2.3984747020
H        3.1184726636    1.8782062063   -1.4739141898
H       -0.9891979534   -2.4863420557    1.6916589363
H       -1.4003804630   -2.7009825864   -0.0270666521
H       -2.5190935928   -1.8333582756    1.0515790104
H       -0.3697515171    1.2472303684    1.3509274383
H       -0.2909899290   -0.1108251687    2.5026590750
H       -1.8612480573    0.4828747163    1.9085823843
27   
Generated by ForceBalance from scan.xyz: Frame 9 of 24
C        1.3631281114   -0.2975278156   -0.7144377242
C       -0.8457629347    0.6826159670   -1.5858440843
C        1.0523843966    2.2049890325   -0.8486365987
C        3.0762915945    3.5688535043   -0.0480345076
C        2.6743156376    4.1185136389   -1.3738686582
C        0.6601159748    0.8299614820   -1.4589627276
C        2.4500336818    2.6288258681   -1.0770535912
C       -0.7706428729   -0.7046447376    0.4199715416
C       -1.4661963338   -2.0164179463    0.7451227511
C       -0.7739642999    0.2802874723    1.5819194695
O        2.5411077635   -0.5366764224   -0.8508737791
O       -1.4774211304    1.2272695633   -2.4567507848
O        0.2345994679    2.8690021684   -0.2327605990
O        0.5978257087   -1.0640585122    0.0940214600
O       -1.4615660509   -0.1617156233   -0.7176970048
H        4.1295146255    3.4100436395    0.1593900016
H        2.4535683302    3.8133418246    0.8062356830
H        1.7783821988    4.7289724325   -1.4177596623
H        3.4413461472    4.3467233528   -2.1069256393
H        1.0629315081    0.8191181743   -2.4748208299
H        3.1007029052    1.9125615360   -1.5640650005
H       -1.1542658707   -2.3746272399    1.7284538302
H       -1.2373421035   -2.7643994703   -0.0159151306
H       -2.5453209702   -1.8469462762    0.7679490815
H       -0.3561537426    1.2451491576    1.2935891365
H       -0.1945825634   -0.1371584450    2.4086567289
H       -1.8031195566    0.4430823310    1.9126505700
27   
Generated by ForceBalance from scan.xyz: Frame 10 of 24
C        1.3540450475   -0.2696342450   -0.7888891763
C       -0.8619934019    0.7342530322   -1.6130222287
C        1.0551667563    2.2361699935   -0.8820488609
C        3.0994164918    3.5804763162   -0.1008973107
C        2.6770644687    4.1476844364   -1.4129809982
C        0.6460867993    0.8724155376   -1.5062236525
C        2.4508650718    2.6555888044   -1.1295709052
C       -0.7671775467   -0.6878462678    0.3680841598
C       -1.4649193979   -2.0042138706    0.6926429027
C       -0.7386253571    0.2800574179    1.5437977648
O        2.5295415471   -0.5094519273   -0.9454163303
O       -1.5048378702    1.2980094578   -2.4632045269
O        0.2519253050    2.8949760118   -0.2418452769
O        0.5964725661   -1.0476186338    0.0153410212
O       -1.4692002811   -0.1248877247   -0.7523347563
H        4.1553107237    3.4143562945    0.0862267304
H        2.4928652894    3.8177552560    0.7669305057
H        1.7834810838    4.7627890548   -1.4339512455
H        3.4322015188    4.3809298356   -2.1567260369
H        1.0339574004    0.8740627704   -2.5279460679
H        3.0892418151    1.9420235343   -1.6364539587
H       -1.3505101716   -2.2496359236    1.7504003880
H       -1.0725954496   -2.8101413397    0.0709728118
H       -2.5329757630   -1.8882795509    0.4941876845
H       -0.3310648789    1.2505217700    1.2595866302
H       -0.1367773582   -0.1510326298    2.3470127838
H       -1.7588307755    0.4346429316    1.9059538616
27   
Generated by ForceBalance from scan.xyz: Frame 11 of 24
C        1.5648273646   -0.2877268490   -0.3871342037
C       -0.4634909893    0.3462260275   -1.8308545170
C        1.1503905382    2.1278393705   -1.0007068705
C        2.8858179476    3.7739384108   -0.0652716334
C        2.7358083228    4.0737042006   -1.5176026778
C        0.9711304959    0.6455513145   -1.4342257296
C        2.5391520417    2.6339227158   -1.0216577764
C       -0.7342399298   -0.7254573431    0.3460686450
C       -1.4134331640   -2.0350678266    0.7539225201
C       -1.0283222527    0.4249121233    1.2996399050
O        2.7574050363   -0.4285764041   -0.2395702021
O       -0.9306873341    0.7036698190   -2.8834277662
O        0.1871836847    2.8032469360   -0.6767092668
O        0.6931846900   -1.0020233200    0.3591887632
O       -1.1953706308   -0.4235270924   -0.9824285995
H        3.8807855972    3.7437225470    0.3667543644
H        2.0875098547    4.0911368468    0.5976190069
H        1.8353449807    4.5875709299   -1.8375903792
H        3.6234933209    4.2532589574   -2.1155763074
H        1.5779185845    0.5143041417   -2.3337460465
H        3.3154006400    1.9117302624   -1.2439985998
H       -1.7689808296   -1.9852031710    1.7849442793
H       -0.7255349575   -2.8734638184    0.6389672784
H       -2.2813820244   -2.1968687850    0.1115851886
H       -0.5968175736    1.3632793767    0.9506056886
H       -0.6289927312    0.1811221421    2.2870061811
H       -2.1110015510    0.5578510855    1.3757710813
27   
Generated by ForceBalance from scan.xyz: Frame 12 of 24
C        1.5516536196   -0.2972735778   -0.3841800784
C       -0.4901752528    0.3551931276   -1.8002201482
C        1.1406487389    2.1246714894   -0.9753337647
C        2.8930320272    3.7548141022   -0.0439324280
C        2.7302351153    4.0670272357   -1.4922639738
C        0.9499497896    0.6461150415   -1.4172532716
C        2.5316398133    2.6242351730   -1.0061008722
C       -0.7394213187   -0.7361385586    0.3712299477
C       -1.4222139567   -2.0478625803    0.7780568808
C       -1.0366396981    0.4157017182    1.3218436481
O        2.7450764081   -0.4441607408   -0.2504032067
O       -0.9682811000    0.7253413528   -2.8435431560
O        0.1839463809    2.8024834394   -0.6376569356
O        0.6863571267   -1.0135529280    0.3686357421
O       -1.2124002664   -0.4242073283   -0.9528577548
H        3.8920039962    3.7163975930    0.3780880446
H        2.1027625615    4.0703523141    0.6293065755
H        1.8291017187    4.5876803426   -1.7991262441
H        3.6128593133    4.2473405043   -2.0974582764
H        1.5461215503    0.5191186100   -2.3244891638
H        3.3022501735    1.9002346383   -1.2417427289
H       -2.0077956686   -1.9182386051    1.6902549504
H       -0.6698239332   -2.8183751486    0.9521629931
H       -2.0886157552   -2.3769678004   -0.0205795612
H       -0.5767693378    1.3469890861    0.9906577993
H       -0.6709843655    0.1610404147    2.3199806552
H       -2.1180517868    0.5682001524    1.3665821820
27   
Generated by ForceBalance from scan.xyz: Frame 13 of 24
C        1.5527894769   -0.2942099552   -0.4388771625
C       -0.5110610487    0.3859916206   -1.8091700236
C        1.1436992644    2.1362789499   -0.9893108798
C        2.9225719891    3.7460162912   -0.0720389076
C        2.7313254210    4.0787604445   -1.5123049757
C        0.9374967837    0.6649722639   -1.4483834951
C        2.5361161268    2.6303152633   -1.0417121348
C       -0.7236656504   -0.7323216737    0.3538468695
C       -1.4050020568   -2.0451450289    0.7491124123
C       -1.0229143019    0.4122260043    1.3125977247
O        2.7472039219   -0.4510389888   -0.3299726153
O       -1.0053187063    0.7744891112   -2.8385061053
O        0.1972497531    2.8129419984   -0.6219797653
O        0.6975289051   -1.0116168598    0.3261430936
O       -1.2194138778   -0.4032315775   -0.9611729565
H        3.9298961704    3.6975802706    0.3285668619
H        2.1478890827    4.0557466109    0.6216989047
H        1.8264579239    4.6074268152   -1.7933874042
H        3.6020831106    4.2635026758   -2.1331497464
H        1.5168762712    0.5474040414   -2.3676731715
H        3.2984404854    1.9064498063   -1.3033807472
H       -2.1880203317   -1.8700431430    1.4893219031
H       -0.6650245042   -2.7095571165    1.1998430020
H       -1.8293772612   -2.5305129203   -0.1304149678
H       -0.5360193433    1.3381790616    1.0060447213
H       -0.6887873297    0.1402217766    2.3176366815
H       -2.1016129350    0.5844212478    1.3294109109
27   
Generated by ForceBalance from scan.xyz: Frame 14 of 24
C        1.5297313723   -0.3191929570   -0.3630591744
C       -0.5310573246    0.3646793397   -1.7341942418
C        1.1253605719    2.1114615540   -0.9129476700
C        2.9037420299    3.7139568435    0.0178133837
C        2.7214903966    4.0506870067   -1.4226676678
C        0.9179780848    0.6408814016   -1.3737638918
C        2.5193651612    2.6017358264   -0.9569222417
C       -0.7475050689   -0.7361453638    0.4375829226
C       -1.4275623328   -2.0441153563    0.8287629807
C       -1.0502660905    0.4075859052    1.3964183031
O        2.7231710468   -0.4868075598   -0.2597675547
O       -1.0220352066    0.7424426019   -2.7690270756
O        0.1784688327    2.7904350475   -0.5509770868
O        0.6717530162   -1.0222270862    0.4118017472
O       -1.2451136022   -0.4076546558   -0.8758953738
H        3.9086397600    3.6614767993    0.4239635523
H        2.1261106445    4.0243455652    0.7079564014
H        1.8197857164    4.5827809150   -1.7074246802
H        3.5962547815    4.2343673015   -2.0381670417
H        1.4980567844    0.5230335937   -2.2924604772
H        3.2810509672    1.8762632535   -1.2160672989
H       -2.3665812836   -1.8475531682    1.3498435144
H       -0.7751274786   -2.5862461541    1.5171383938
H       -1.6060734203   -2.6598466525   -0.0538444424
H       -0.5484760746    1.3287963618    1.1000294934
H       -0.7338312146    0.1301132523    2.4057122823
H       -2.1267577221    0.5921811946    1.3968096507
27   
Generated by ForceBalance from scan.xyz: Frame 15 of 24
C        1.5289290500   -0.3202274398   -0.4105984093
C       -0.5465756942    0.3797603603   -1.7516933896
C        1.1220118658    2.1153139573   -0.9322096228
C        2.9149241696    3.7064224637   -0.0095845014
C        2.7147632763    4.0566366972   -1.4444659766
C        0.9071987969    0.6499053511   -1.4055077224
C        2.5161543903    2.6037850855   -0.9893288136
C       -0.7393357191   -0.7366743821    0.4128505496
C       -1.4106473011   -2.0467220980    0.7930079090
C       -1.0280811226    0.3931591907    1.3924233131
O        2.7229398653   -0.4928563545   -0.3247706254
O       -1.0477595272    0.7669264628   -2.7781783239
O        0.1808081178    2.7915939240   -0.5507510753
O        0.6781821517   -1.0248922333    0.3705752975
O       -1.2532576098   -0.3958310901   -0.8907021379
H        3.9248939872    3.6486982331    0.3830504919
H        2.1467735670    4.0117019709    0.6933318594
H        1.8103873159    4.5927172980   -1.7127934137
H        3.5818591298    4.2445121167   -2.0694730948
H        1.4765420193    0.5399120328   -2.3318319604
H        3.2731888204    1.8795460507   -1.2651038349
H       -2.4472150682   -1.8666180555    1.0849033657
H       -0.8841686964   -2.4813644845    1.6459592741
H       -1.3745976683   -2.7456538884   -0.0445818605
H       -0.5407128575    1.3211884317    1.0930616664
H       -0.6839368563    0.1076003376    2.3900053141
H       -2.1053828925    0.5709766965    1.4220510126
27   
Generated by ForceBalance from scan.xyz: Frame 16 of 24
C        1.5206174203   -0.3234812275   -0.4078032223
C       -0.5564690021    0.3893732944   -1.7392814849
C        1.1199740951    2.1156593617   -0.9183400471
C        2.9183966820    3.6998238964    0.0054262762
C        2.7158679333    4.0549895332   -1.4279030275
C        0.8992392869    0.6529689155   -1.3970903261
C        2.5150523210    2.6011242407   -0.9768353574
C       -0.7477922056   -0.7287629531    0.4228083748
C       -1.4224317713   -2.0366918655    0.7975471735
C       -1.0115102148    0.3920568568    1.4198530759
O        2.7142745972   -0.5015752388   -0.3275405231
O       -1.0583932649    0.7769864192   -2.7651290890
O        0.1815432505    2.7930624272   -0.5319124588
O        0.6692166285   -1.0267779343    0.3727667835
O       -1.2666162069   -0.3786365524   -0.8737060310
H        3.9290792587    3.6386223273    0.3956896993
H        2.1524550864    4.0045933087    0.7109675773
H        1.8121122371    4.5939335055   -1.6925702902
H        3.5819896090    4.2428507867   -2.0542604837
H        1.4650475910    0.5450849602   -2.3257850654
H        3.2697994259    1.8760649550   -1.2566785645
H       -2.5032526582   -1.8894574777    0.8472463131
H       -1.0584396103   -2.3734514351    1.7705454102
H       -1.1975842153   -2.7974696249    0.0468956604
H       -0.5639820826    1.3320731898    1.0963562060
H       -0.6060772821    0.1121391205    2.3953170129
H       -2.0896866348    0.5444262724    1.5106036981
27   
Generated by ForceBalance from scan.xyz: Frame 17 of 24
C        1.5079615809   -0.3258289794   -0.3753136384
C       -0.5683357699    0.3967861540   -1.7031875917
C        1.1167870843    2.1159935846   -0.8848339671
C        2.9229769100    3.6926385511    0.0368188868
C        2.7228194458    4.0462841800   -1.3972181859
C        0.8888684073    0.6542049248   -1.3628352543
C        2.5143359053    2.5942565868   -0.9435572098
C       -0.7622343826   -0.7221816952    0.4571881313
C       -1.4438686416   -2.0267084281    0.8377934127
C       -0.9999209580    0.3959650830    1.4638464016
O        2.7012644261   -0.5075151765   -0.2958957385
O       -1.0719939235    0.7868087698   -2.7271380064
O        0.1817182335    2.7986234107   -0.4994005595
O        0.6543147714   -1.0297379758    0.4013903802
O       -1.2812946932   -0.3689481206   -0.8369200696
H        3.9332432466    3.6270498825    0.4274473732
H        2.1583745080    4.0026061168    0.7415456416
H        1.8219723339    4.5894180858   -1.6632284152
H        3.5901454754    4.2285309396   -2.0235712023
H        1.4527391563    0.5441997688   -2.2924881849
H        3.2653816869    1.8648019147   -1.2218805729
H       -2.5155312315   -1.9415036126    0.6465654663
H       -1.2673674795   -2.2576935060    1.8900074619
H       -1.0491532154   -2.8376504103    0.2214685174
H       -0.5754359388    1.3412409644    1.1248637700
H       -0.5553538622    0.1177254992    2.4222170854
H       -2.0758477779    0.5367288056    1.5964072668
27   
Generated by ForceBalance from scan.xyz: Frame 18 of 24
C        1.4879676757   -0.3329456375   -0.2817968915
C       -0.5786799049    0.3898221318   -1.6258360116
C        1.1108682343    2.1074142125   -0.8133603581
C        2.9215669814    3.6856072070    0.0964758940
C        2.7237867655    4.0278750858   -1.3406566313
C        0.8777981303    0.6426984737   -1.2796139317
C        2.5100561651    2.5804092101   -0.8749071305
C       -0.7901594498   -0.7248597541    0.5341037120
C       -1.4838391161   -2.0247679890    0.9273982926
C       -1.0140064591    0.4012241181    1.5349999485
O        2.6811251878   -0.5100328631   -0.1887299081
O       -1.0761165721    0.7823254553   -2.6517131438
O        0.1779738564    2.7962782623   -0.4337543058
O        0.6275347956   -1.0404194877    0.4836452086
O       -1.2983487502   -0.3763794538   -0.7642599505
H        3.9312860008    3.6199318486    0.4884922212
H        2.1574113264    4.0040388106    0.7979045796
H        1.8249870923    4.5717621904   -1.6120004884
H        3.5922203573    4.2019298785   -1.9678116789
H        1.4453053836    0.5218007753   -2.2057890106
H        3.2588445253    1.8460509564   -1.1462345038
H       -2.4891559756   -2.0376940844    0.5021450460
H       -1.5283751604   -2.1340733137    2.0121391587
H       -0.9349541782   -2.8705070578    0.5071029212
H       -0.5874457749    1.3428705808    1.1885031728
H       -0.5639764045    0.1237558362    2.4909290466
H       -2.0884464874    0.5478864550    1.6757306927
27   
Generated by ForceBalance from scan.xyz: Frame 19 of 24
C        1.4749001365   -0.3407166176   -0.2641718789
C       -0.5978748587    0.3938319758   -1.5922214397
C        1.1030771084    2.1036889176   -0.7850491875
C        2.9251673430    3.6732064150    0.1181004899
C        2.7187223616    4.0213084808   -1.3163690368
C        0.8613752279    0.6410907017   -1.2539274367
C        2.5032078316    2.5728754759   -0.8544186036
C       -0.7999516479   -0.7379423537    0.5615044706
C       -1.4985700650   -2.0404156311    0.9598933324
C       -1.0156432829    0.3889394328    1.5630001535
O        2.6684861232   -0.5186240835   -0.1768207691
O       -1.1020720743    0.7963496089   -2.6108415020
O        0.1751524752    2.7946885035   -0.3973157332
O        0.6180946854   -1.0542932915    0.4996553476
O       -1.3123098418   -0.3817814354   -0.7340305979
H        3.9374163523    3.6028408497    0.5027085772
H        2.1669701205    3.9916026219    0.8259782767
H        1.8199524653    4.5691227984   -1.5797846002
H        3.5835005204    4.1947659809   -1.9487219996
H        1.4224588069    0.5215413410   -2.1842139404
H        3.2477381637    1.8370333517   -1.1332079494
H       -2.3840860301   -2.1804951385    0.3378708677
H       -1.7838993188   -2.0316134068    2.0131639576
H       -0.8276065014   -2.8834832028    0.7846905378
H       -0.5733018156    1.3257856304    1.2236434520
H       -0.5783452164    0.1022121780    2.5223955991
H       -2.0892601288    0.5491445786    1.6943763555
27   
Generated by ForceBalance from scan.xyz: Frame 20 of 24
C        1.4781254703   -0.3319209339   -0.3204110060
C       -0.6173757455    0.4288357855   -1.5970911117
C        1.1077539006    2.1206885170   -0.8003530604
C        2.9553448415    3.6666854197    0.0893898912
C        2.7231609184    4.0363187981   -1.3358046815
C        0.8495059254    0.6655151995   -1.2839098912
C        2.5091935696    2.5825726709   -0.8904051743
C       -0.7797392932   -0.7365576933    0.5442589043
C       -1.4788325619   -2.0429994966    0.9401893580
C       -0.9938805983    0.3876573798    1.5487910472
O        2.6718982353   -0.5172219761   -0.2580406861
O       -1.1398459509    0.8524849802   -2.5981325332
O        0.1914153861    2.8114819673   -0.3859443915
O        0.6336064931   -1.0516745109    0.4535044297
O       -1.3148843514   -0.3625359083   -0.7411689999
H        3.9742224913    3.5855073819    0.4538392400
H        2.2124701348    3.9787493306    0.8160906045
H        1.8222845801    4.5923194151   -1.5736489833
H        3.5764107869    4.2145830615   -1.9823178175
H        1.3916148312    0.5563652358   -2.2266996408
H        3.2442688105    1.8470199641   -1.1940218698
H       -2.1954384990   -2.3239926053    0.1671132605
H       -2.0102387571   -1.9320393931    1.8872915933
H       -0.7412332949   -2.8400126670    1.0449590749
H       -0.5253298038    1.3176887672    1.2262898397
H       -0.5843317799    0.0874789643    2.5167868785
H       -2.0667035411    0.5672774847    1.6559305034
27   
Generated by ForceBalance from scan.xyz: Frame 21 of 24
C        1.4661894015   -0.3441750698   -0.3134230491
C       -0.6394358276    0.4301675176   -1.5656224689
C        1.0974683984    2.1116059294   -0.7723969147
C        2.9594187794    3.6467486763    0.1078828176
C        2.7108951459    4.0288089986   -1.3112159906
C        0.8311356358    0.6607710324   -1.2645844847
C        2.4986076536    2.5718887037   -0.8753865595
C       -0.7825816404   -0.7488631329    0.5707102136
C       -1.4793571033   -2.0566631272    0.9566828208
C       -1.0065582187    0.3720447533    1.5768064555
O        2.6596536722   -0.5348200536   -0.2646283153
O       -1.1698315963    0.8622344050   -2.5589823254
O        0.1872864985    2.8002838253   -0.3412822073
O        0.6278211756   -1.0629034511    0.4687711227
O       -1.3294113766   -0.3659303882   -0.7089702728
H        3.9825841546    3.5603392793    0.4588799367
H        2.2262972123    3.9544273979    0.8462616788
H        1.8085981473    4.5888534116   -1.5336623954
H        3.5567485381    4.2104587989   -1.9664513765
H        1.3644322840    0.5567802111   -2.2129200887
H        3.2283395298    1.8373742845   -1.1940484398
H       -1.9819113355   -2.4794654323    0.0854110728
H       -2.2367329426   -1.8743826590    1.7223266750
H       -0.7490451962   -2.7661254393    1.3477207315
H       -0.5083433915    1.2941625738    1.2769704968
H       -0.6354436263    0.0590263076    2.5565697175
H       -2.0781808822    0.5722432658    1.6483678761
27   
Generated by ForceBalance from scan.xyz: Frame 22 of 24
C        1.4461515535   -0.3722776441   -0.2327186300
C       -0.6573488712    0.4030136307   -1.4852206438
C        1.0795404055    2.0832203406   -0.6925040361
C        2.9395851513    3.6120150008    0.2025341093
C        2.7013829829    3.9973215065   -1.2174244686
C        0.8133963739    0.6325957386   -1.1854296440
C        2.4823954007    2.5402044848   -0.7860447494
C       -0.8017870137   -0.7564517322    0.6615848273
C       -1.4977700023   -2.0590818788    1.0440945584
C       -1.0289644725    0.3644771623    1.6671818119
O        2.6383144774   -0.5723683791   -0.1905219607
O       -1.1848868090    0.8225499295   -2.4853703174
O        0.1678244215    2.7741917002   -0.2683027828
O        0.6068393817   -1.0769792312    0.5606985922
O       -1.3515438289   -0.3753122413   -0.6159979750
H        3.9601455364    3.5221234393    0.5601778714
H        2.2024043416    3.9202394415    0.9366392735
H        1.8020652985    4.5602264176   -1.4446695933
H        3.5520499438    4.1779877150   -1.8666682850
H        1.3472315814    0.5284749620   -2.1333456953
H        3.2123283060    1.8043438076   -1.1011875126
H       -1.7665825412   -2.6147112729    0.1438619216
H       -2.4212177452   -1.8425328554    1.5862852538
H       -0.8441482517   -2.6568956070    1.6809961838
H       -0.5166698593    1.2813610255    1.3753909735
H       -0.6742602516    0.0475199941    2.6517995214
H       -2.0989229378    0.5764270926    1.7236067383
27   
Generated by ForceBalance from scan.xyz: Frame 23 of 24
C        1.4361780011   -0.3750573262   -0.2204828300
C       -0.6700006466    0.4145863560   -1.4600063176
C        1.0782273798    2.0832733589   -0.6695836551
C        2.9488143898    3.6012309345    0.2217614857
C        2.7052354814    3.9926994894   -1.1955476670
C        0.8032764935    0.6359432594   -1.1670712503
C        2.4824184146    2.5348417681   -0.7684393428
C       -0.8096412386   -0.7458723674    0.6845787956
C       -1.5029830625   -2.0458847442    1.0606654716
C       -1.0234908985    0.3665176424    1.7026628175
O        2.6272831425   -0.5835135347   -0.1873354050
O       -1.2000909585    0.8371577865   -2.4573448759
O        0.1715432340    2.7762648517   -0.2377758475
O        0.5977809668   -1.0737505477    0.5780661655
O       -1.3646026102   -0.3593775048   -0.5867072502
H        3.9707972291    3.5060181383    0.5739219740
H        2.2164938644    3.9094271330    0.9607240133
H        1.8072178526    4.5601451995   -1.4165195465
H        3.5536471958    4.1720563129   -1.8480982840
H        1.3319337094    0.5327833995   -2.1179468351
H        3.2075457418    1.7970372279   -1.0900502259
H       -1.5431362512   -2.7081452194    0.1934489869
H       -2.5276679060   -1.8370677640    1.3766078848
H       -0.9657781405   -2.5290704526    1.8787739603
H       -0.5249196282    1.2887257829    1.4038699514
H       -0.6433639825    0.0469610244    2.6765443829
H       -2.0932139964    0.5715121707    1.7853685893
27   
Generated by ForceBalance from scan.xyz: Frame 24 of 24
C        1.4304249846   -0.3726810251   -0.2866426500
C       -0.6853136796    0.4366614296   -1.4961388724
C        1.0739496135    2.0914905093   -0.7015659753
C        2.9564802489    3.5971982353    0.1851077868
C        2.6978757777    4.0036082986   -1.2254097866
C        0.7912992494    0.6512960547   -1.2147330479
C        2.4777425643    2.5417574923   -0.8106389860
C       -0.8081222202   -0.7465445703    0.6360036861
C       -1.4995826452   -2.0485141507    1.0002229911
C       -0.9946081056    0.3465545565    1.6802708515
O        2.6213700658   -0.5834111019   -0.2685761450
O       -1.2227343100    0.8695539548   -2.4851694101
O        0.1734493349    2.7804864829   -0.2506785428
O        0.5971172042   -1.0797084457    0.5097714391
O       -1.3757530893   -0.3402056972   -0.6223476016
H        3.9820312917    3.4968529779    0.5252614077
H        2.2327463665    3.8991500500    0.9350229818
H        1.7982099477    4.5744549340   -1.4303920698
H        3.5390093239    4.1886858800   -1.8857312143
H        1.3105631926    0.5590861052   -2.1718571230
H        3.1982894942    1.8064804868   -1.1480641703
H       -1.3298853975   -2.7894966156    0.2161575542
H       -2.5726101889   -1.8756417352    1.1041442732
H       -1.1010971874   -2.4265317300    1.9443749323
H       -0.5421480861    1.2866596483    1.3640914094
H       -0.5469142404    0.0260528337    2.6242356387
H       -2.0629347637    0.5194217543    1.8310587634
