30   

C       -1.4854496307    0.9634570052    0.9076648809
C       -1.2341565744   -0.2557729823    1.5397196575
C       -0.5037057907    1.5386456804    0.0991574693
C        5.5528355421    1.2263096858   -1.2597804073
C       -0.0016993567   -0.8969106170    1.3688503563
C        0.7285132885    0.8985446186   -0.0723263804
C        5.1995652599    0.0113285507   -1.8384494556
C        4.8896724224    1.6546003735   -0.1147635577
C        1.0067420072   -0.3261700446    0.5726806518
C        3.4642495892   -0.3164043582   -0.1651246874
C        4.1827639780   -0.7788849442   -1.2957703243
C        3.8575028282    0.8967286845    0.4419743943
C        2.2913810884   -1.0575555883    0.3842140039
C        3.8259363254   -3.1611583235   -1.1471086373
C        3.5598033723   -3.1145705761    0.3600484561
N        2.3393171114   -2.3409428336    0.6754395153
N        3.9382354143   -2.0142883330   -1.8967850296
O        3.9824478015   -4.2220750837   -1.7310547566
F        3.2554270018    1.3460255404    1.5678910195
H       -2.4412433509    1.4580467391    1.0395461688
H       -1.9960911379   -0.7101709182    2.1628123037
H       -0.6985470038    2.4799548758   -0.4020480188
H        6.3487013088    1.8259583982   -1.6892912024
H        0.1592921042   -1.8455300408    1.8701540488
H        1.4601590511    1.3604467619   -0.7250841576
H        5.7387435395   -0.3302955507   -2.7145527221
H        5.1701039931    2.5883986660    0.3580414018
H        3.4378081923   -4.1412079473    0.7163535553
H        4.4288073998   -2.6890522307    0.8697742722
H        4.2578054506   -2.1997576679   -2.8387605008
30   

C       -1.4479566824    1.0163146495    0.9392905191
C       -1.1304369891   -0.1085336616    1.7044524492
C       -0.5603877851    1.4587881987   -0.0441766282
C        5.5529696681    1.2402755612   -1.1688075996
C        0.0729570879   -0.7897681393    1.4875012855
C        0.6425579322    0.7778032963   -0.2605654364
C        5.2415843189    0.0296099566   -1.7791362867
C        4.8295066970    1.6471573572   -0.0532962539
C        0.9777853201   -0.3570938044    0.5053286860
C        3.4370081711   -0.3438618499   -0.1901524682
C        4.2097049292   -0.7797012482   -1.2961179579
C        3.7816769684    0.8705277198    0.4450478026
C        2.2481215831   -1.1034158293    0.2910800637
C        3.8355683790   -3.1682462696   -1.2352281581
C        3.4986721298   -3.1685023729    0.2576073266
N        2.2729852361   -2.3937338981    0.5478947714
N        3.9980393974   -1.9997425041   -1.9402435135
O        4.0098048406   -4.2111106914   -1.8459847493
F        3.1218681190    1.3034412136    1.5447165093
H       -2.3811000512    1.5423251755    1.1068893792
H       -1.8174070294   -0.4568560200    2.4673167082
H       -0.8048846473    2.3290111971   -0.6426237646
H        6.3606993859    1.8548958768   -1.5525382749
H        0.2991933168   -1.6620182408    2.0918488788
H        1.3134055567    1.1322467923   -1.0353744366
H        5.8234835666   -0.2919055354   -2.6352813801
H        5.0738281645    2.5793752107    0.4421042357
H        3.3520323137   -4.2052822506    0.5729378074
H        4.3474182567   -2.7696569407    0.8202498790
H        4.3615300697   -2.1589749371   -2.8710543496
30   

C       -1.4080196682    1.0523478385    0.9474830766
C       -0.9993840104    0.0430000393    1.8235619904
C       -0.6373294231    1.3465880372   -0.1803385759
C        5.5647431760    1.2492398179   -1.0697715705
C        0.1766908086   -0.6726767159    1.5705439685
C        0.5382038553    0.6303893604   -0.4314264014
C        5.2886596751    0.0489616649   -1.7159581115
C        4.7894243429    1.6307210320    0.0191625590
C        0.9550072189   -0.3946449240    0.4381513116
C        3.4220056168   -0.3697718904   -0.2112912901
C        4.2425911049   -0.7763597103   -1.2943038076
C        3.7269023933    0.8380621457    0.4574800891
C        2.2192823203   -1.1462883211    0.2003763477
C        3.8577869648   -3.1673722968   -1.3252330956
C        3.4581688013   -3.2159916665    0.1506817995
N        2.2274610872   -2.4423650930    0.4213000205
N        4.0611384845   -1.9776572677   -1.9819778199
O        4.0499600300   -4.1901887707   -1.9638165211
F        3.0181545203    1.2502444176    1.5343559170
H       -2.3195858177    1.6058049530    1.1430523908
H       -1.5931742091   -0.1870675665    2.7008615153
H       -0.9498528694    2.1302200386   -0.8611099034
H        6.3834914488    1.8767094603   -1.4064251572
H        0.4846193927   -1.4526878418    2.2589334328
H        1.1292071002    0.8694831065   -1.3088874656
H        5.9080329290   -0.2505287574   -2.5535837119
H        5.0035649669    2.5560940861    0.5406418484
H        3.2922281431   -4.2619416470    0.4233151175
H        4.2859739872   -2.8440970599    0.7609336188
H        4.4643681418   -2.1090527456   -2.9007114359
30   

C       -1.3746515082    1.0758045462    0.9324058824
C       -0.8515928062    0.2233016729    1.9089082016
C       -0.7361988785    1.1874669570   -0.3057866630
C        5.5859743916    1.2530610108   -0.9538269071
C        0.3055413916   -0.5188820414    1.6451010390
C        0.4204532164    0.4442042885   -0.5661711135
C        5.3296190633    0.0716230733   -1.6408520476
C        4.7787830144    1.6039732560    0.1217443749
C        0.9461565219   -0.4278208822    0.4029578978
C        3.4219240389   -0.3918800853   -0.2007514707
C        4.2726855672   -0.7654885588   -1.2729908551
C        3.7050632843    0.7992553813    0.5078699996
C        2.2093964419   -1.1829946519    0.1494472314
C        3.8785603124   -3.1541960511   -1.4019694099
C        3.4354037846   -3.2565767982    0.0583520956
N        2.2028350862   -2.4848504633    0.3249491455
N        4.1090554712   -1.9421831828   -2.0066538921
O        4.0822831633   -4.1531109459   -2.0738957900
F        2.9680319850    1.1848788646    1.5751662883
H       -2.2711414581    1.6505603179    1.1360417036
H       -1.3408633946    0.1370211061    2.8723942056
H       -1.1355493591    1.8513913387   -1.0640358153
H        6.4129768673    1.8902803118   -1.2494476370
H        0.7086348986   -1.1750341789    2.4091235748
H        0.9148667047    0.5426024209   -1.5265200585
H        5.9721422870   -0.2029848512   -2.4695047790
H        4.9760172538    2.5153390317    0.6736338643
H        3.2548049120   -4.3110159405    0.2851802375
H        4.2477477354   -2.9151176892    0.7059855368
H        4.5385342558   -2.0421883344   -2.9174255354
30   

C       -1.3916776037    1.0869787102    0.8892939810
C       -0.7309605255    0.4670978075    1.9534269630
C       -0.8886675310    0.9585194346   -0.4079758615
C        5.6274698131    1.2245431226   -0.8277637816
C        0.4282221942   -0.2815938622    1.7183203077
C        0.2705476465    0.2090764317   -0.6375329475
C        5.3444617942    0.0817797694   -1.5668218997
C        4.8311091164    1.5415941845    0.2657061455
C        0.9367403781   -0.4283160278    0.4227237435
C        3.4308166150   -0.4093865093   -0.1413538925
C        4.2715069894   -0.7493705964   -1.2335838007
C        3.7417597994    0.7426650412    0.6189769157
C        2.2006859716   -1.1926485338    0.1667090963
C        3.8312839158   -3.1212432724   -1.4766306323
C        3.3800951612   -3.2848888120   -0.0245679251
N        2.1621536973   -2.5007879269    0.2705529402
N        4.0823493955   -1.8858078287   -2.0227714503
O        4.0180398101   -4.0901705560   -2.1957422954
F        3.0205464047    1.0968931118    1.7064060407
H       -2.2901848275    1.6662965173    1.0698187607
H       -1.1153221382    0.5659182994    2.9622006624
H       -1.3955291209    1.4397113165   -1.2367089101
H        6.4661273890    1.8579847134   -1.0975005177
H        0.9371390542   -0.7580791934    2.5491850334
H        0.6582333090    0.1178485116   -1.6463833975
H        5.9781050954   -0.1669355012   -2.4103402818
H        5.0489248334    2.4225999982    0.8576808116
H        3.1761412083   -4.3449151569    0.1505233160
H        4.1958545754   -2.9913651192    0.6419643696
H        4.5098130155   -1.9500424790   -2.9377093583
30   

C       -1.2749173565    0.7195760788    0.6763969400
C       -0.4807091412    0.4407225761    1.7910274916
C       -0.8366929592    0.3437829937   -0.5949560550
C        5.8629401734    1.3333159307   -0.7000653436
C        0.7486887373   -0.2099599020    1.6321441983
C        0.3933071296   -0.3055744340   -0.7464269103
C        5.5994203747    0.2441960254   -1.5210353597
C        5.0835580708    1.5337792258    0.4315782632
C        1.2052906993   -0.5911517019    0.3652192855
C        3.7296417080   -0.4215961943   -0.1028574088
C        4.5609082282   -0.6454844558   -1.2335427638
C        4.0275494953    0.6743620854    0.7422024350
C        2.5272318271   -1.2719643713    0.1447278193
C        4.2256312228   -3.0085349629   -1.6420396659
C        3.7892461051   -3.2941871121   -0.2044857121
N        2.5376968538   -2.5846372588    0.1340295407
N        4.3994505955   -1.7260518210   -2.1034188546
O        4.4562695599   -3.9142215210   -2.4277863359
F        3.3335548031    0.9184133182    1.8739181937
H       -2.2284633406    1.2210978806    0.7978634931
H       -0.8185074506    0.7235451148    2.7815121605
H       -1.4493085953    0.5528374521   -1.4646073482
H        6.6746662562    2.0138583457   -0.9352458532
H        1.3423307271   -0.4372392220    2.5104426798
H        0.7251297643   -0.5954741011   -1.7376562427
H        6.2221666362    0.0834201703   -2.3935177981
H        5.2893008631    2.3702920139    1.0888249296
H        3.6313795468   -4.3715891861   -0.1036273757
H        4.5920045919   -3.0105021206    0.4818090891
H        4.8163818318   -1.7047166058   -3.0251826528
30   

C       -1.3051611218    0.6953302161    0.5625808146
C       -0.4303057393    0.7247489275    1.6494538823
C       -0.9341119186    0.0198659477   -0.5996823488
C        5.9230807718    1.3024174494   -0.5798966283
C        0.8148485308    0.0883425282    1.5708807315
C        0.3112416450   -0.6123689733   -0.6717403973
C        5.5590142051    0.3103057384   -1.4807245353
C        5.2456550508    1.4014520998    0.6281009963
C        1.2153879045   -0.5823349093    0.4074991836
C        3.7654880521   -0.4308156642    0.0001048458
C        4.5119770940   -0.5713174264   -1.2010169514
C        4.1846278329    0.5459018815    0.9340781097
C        2.5418808964   -1.2651962186    0.2249849833
C        4.1328262082   -2.8918802515   -1.7479465620
C        3.7603263925   -3.2714686491   -0.3124294911
N        2.5287145590   -2.5739395237    0.1134393080
N        4.2694075129   -1.5797056727   -2.1362034430
O        4.3268438628   -3.7442783439   -2.6004001711
F        3.6198624554    0.6665328781    2.1514672285
H       -2.2706351403    1.1848094685    0.6244528321
H       -0.7210832490    1.2309860274    2.5629284092
H       -1.6100844558   -0.0179146964   -1.4464255853
H        6.7400595864    1.9787288534   -0.8090460213
H        1.4303381546    0.0886771254    2.4587707422
H        0.5872101173   -1.1362423480   -1.5809639340
H        6.1125149888    0.2151432884   -2.4077989402
H        5.5406996308    2.1511302800    1.3526511063
H        3.5958452124   -4.3519328931   -0.2748279240
H        4.5930166359   -3.0368091487    0.3566226508
H        4.6342084414   -1.4980926136   -3.0764901024
30   

C       -1.3625089226    0.6233422634    0.5240598288
C       -0.3881175690    0.9395206469    1.4703368315
C       -1.0663488529   -0.2914055190   -0.4843305577
C        5.9468423379    1.3164322305   -0.4267223557
C        0.8805870571    0.3491092431    1.4055235977
C        0.2015117396   -0.8777169608   -0.5442844574
C        5.5133829840    0.4476387977   -1.4217473131
C        5.3468353950    1.2665824763    0.8267375069
C        1.2103537855   -0.5631871582    0.3913634498
C        3.7753018618   -0.4187882330    0.0482782042
C        4.4619223607   -0.4423222269   -1.1911358339
C        4.2842844653    0.3958270949    1.0824581961
C        2.5378759208   -1.2458880739    0.2399356253
C        4.0633445737   -2.7106972470   -1.8922529196
C        3.7487706139   -3.1995614437   -0.4722571402
N        2.5262810688   -2.5458535940    0.0429013417
N        4.1712918868   -1.3707202944   -2.1925704318
O        4.2301326391   -3.4983961097   -2.8102368352
F        3.8123721337    0.3195772833    2.3448001614
H       -2.3445889206    1.0798812341    0.5757397016
H       -0.6164606640    1.6415533755    2.2642726620
H       -1.8176881294   -0.5514618256   -1.2213778535
H        6.7668220643    2.0011556116   -0.6168992640
H        1.5747777299    0.6201617203    2.1833148163
H        0.4101446558   -1.5907013915   -1.3353612961
H        6.0202600170    0.4488320613   -2.3798411404
H        5.7099853938    1.9023590366    1.6253860226
H        3.5939148798   -4.2815464470   -0.5068900163
H        4.6031091121   -3.0056806959    0.1825786399
H        4.4988628269   -1.2184201684   -3.1377161916
30   

C       -1.3953840503    0.5925439866    0.5638237659
C       -0.3302352729    1.1088880155    1.2999667550
C       -1.1811346931   -0.4974080798   -0.2763564633
C        5.9682367247    1.3169305060   -0.2931119302
C        0.9455428988    0.5403426082    1.1948234301
C        0.0938543641   -1.0624114228   -0.3772738218
C        5.5344094507    0.5144055947   -1.3435631846
C        5.3546231361    1.2007044488    0.9505769246
C        1.1951930337   -0.5529891977    0.3490428314
C        3.7675022691   -0.4052246380    0.0524995867
C        4.4685577189   -0.3724481028   -1.1760301668
C        4.2765556153    0.3322964614    1.1412332916
C        2.5225424563   -1.2307163947    0.1990942365
C        4.0686037257   -2.6046111585   -1.9747993142
C        3.7524361805   -3.1510448568   -0.5747127253
N        2.5242452377   -2.5254250175   -0.0369213605
N        4.1827792309   -1.2533610850   -2.2201465720
O        4.2368902403   -3.3552799436   -2.9230888113
F        3.7789200951    0.1807463621    2.3896761749
H       -2.3825248229    1.0335998816    0.6451177936
H       -0.4908707905    1.9559769344    1.9572008407
H       -2.0019191330   -0.9105718188   -0.8516897783
H        6.8004193378    1.9989146275   -0.4337455231
H        1.7216074609    0.9975604100    1.7868067568
H        0.2275001948   -1.9128752076   -1.0378661481
H        6.0538989774    0.5616287018   -2.2937169671
H        5.7191489662    1.7804811046    1.7901747029
H        3.6042133692   -4.2317049395   -0.6524563148
H        4.6038622623   -2.9790513143    0.0899755626
H        4.5168880913   -1.0619795486   -3.1558355355
30   

C       -1.4013460186    0.6020697830    0.6177995062
C       -0.2712514731    1.2484955457    1.1151513394
C       -1.2580971322   -0.6192116771   -0.0359369461
C        5.9829393931    1.3016238249   -0.1745742755
C        0.9979020472    0.6771238559    0.9595581623
C        0.0105147072   -1.1873411299   -0.1882291881
C        5.5796049867    0.5336739946   -1.2628597108
C        5.3173630157    1.1646529861    1.0401716754
C        1.1767213221   -0.5509647835    0.3009932529
C        3.7504551548   -0.3999427001    0.0392127777
C        4.4971496844   -0.3432090770   -1.1608125278
C        4.2208436367    0.3077771666    1.1644246182
C        2.5016625607   -1.2251632483    0.1332735185
C        4.1046175179   -2.5465403304   -2.0356940233
C        3.7521176622   -3.1282378166   -0.6588441572
N        2.5127350662   -2.5148090618   -0.1321466402
N        4.2388702467   -1.1905113474   -2.2388225516
O        4.2928097313   -3.2722648049   -2.9995576794
F        3.6488381701    0.1502397605    2.3812430705
H       -2.3835154150    1.0454656558    0.7375042687
H       -0.3756424753    2.2009419378    1.6223544008
H       -2.1295588652   -1.1324433361   -0.4265156357
H        6.8291172841    1.9749399779   -0.2643955546
H        1.8282619076    1.2454603936    1.3499595322
H        0.0807261434   -2.1413339253   -0.7002584864
H        6.1360171048    0.5992846600   -2.1907744542
H        5.6523780457    1.7211211996    1.9074275771
H        3.6040526624   -4.2060786564   -0.7690386027
H        4.5876413054   -2.9766135388    0.0304969036
H        4.6018507093   -0.9749333273   -3.1583576959
30   

C       -1.3883054366    0.6303816481    0.6684342579
C       -0.2218460304    1.3520084861    0.9164630008
C       -1.2969222067   -0.6830131958    0.2135500124
C        5.9871165318    1.2652444052   -0.0644504976
C        1.0321794345    0.7632588111    0.7118254896
C       -0.0433015802   -1.2687769545    0.0110985102
C        5.6288852920    0.5164344971   -1.1815424114
C        5.2559187006    1.1277190715    1.1116156617
C        1.1572832009   -0.5583686788    0.2527167738
C        3.7284524726   -0.4144806634    0.0166424526
C        4.5319507334   -0.3479800519   -1.1462783627
C        4.1434907746    0.2849390941    1.1693195498
C        2.4754256581   -1.2336682763    0.0526186938
C        4.1432380273   -2.5223289862   -2.0948394229
C        3.7323961307   -3.1320832762   -0.7477993972
N        2.4839596344   -2.5162821063   -0.2460087310
N        4.3106681704   -1.1650821802   -2.2551506137
O        4.3575590782   -3.2261345650   -3.0694413465
F        3.4859946151    0.1475786495    2.3448119098
H       -2.3589214526    1.0871244243    0.8261505920
H       -0.2865278803    2.3762979001    1.2656485479
H       -2.1972695168   -1.2541270816    0.0171047219
H        6.8452122926    1.9283058580   -0.1030099727
H        1.8928856210    1.3894690673    0.8988862083
H       -0.0149179773   -2.2950594705   -0.3395322644
H        6.2308090336    0.5885058586   -2.0801229632
H        5.5480805060    1.6759654643    1.9994096345
H        3.5745252299   -4.2046225640   -0.8910530848
H        4.5450275347   -3.0100409920   -0.0260195467
H        4.7143403594   -0.9317745530   -3.1531535518
30   

C       -1.3666754544    0.6558655252    0.7264521282
C       -0.1966050919    1.4144007013    0.7282205476
C       -1.2970179126   -0.7120772462    0.4692624963
C        5.9774101581    1.2272844818    0.0311076055
C        1.0397534285    0.8075293991    0.4757963760
C       -0.0606965148   -1.3159278936    0.2182129448
C        5.6694266228    0.4891365145   -1.1077300024
C        5.1817347157    1.0958375189    1.1648333018
C        1.1405478513   -0.5688355882    0.2159807932
C        3.7055330177   -0.4373717280   -0.0122069439
C        4.5638132713   -0.3647567057   -1.1360101312
C        4.0597434481    0.2642999478    1.1603424875
C        2.4475223083   -1.2448981690   -0.0352086912
C        4.1704814471   -2.5062135535   -2.1634553743
C        3.6947347132   -3.1441375102   -0.8530101970
N        2.4432282993   -2.5174969411   -0.3735287900
N        4.3811215899   -1.1509839879   -2.2739576047
O        4.4066296563   -3.1859349568   -3.1500155597
F        3.3293372122    0.1457699375    2.2938345624
H       -2.3240178807    1.1262213326    0.9209569560
H       -0.2455320328    2.4800116680    0.9214091227
H       -2.2007815441   -1.3108618315    0.4642286742
H        6.8428556549    1.8817963049    0.0410449407
H        1.9088944270    1.4523310886    0.4651589755
H       -0.0443421171   -2.3835744361    0.0261719084
H        6.3155495601    0.5642407389   -1.9748278185
H        5.4284342089    1.6419974703    2.0676124730
H        3.5193112407   -4.2080823866   -1.0347825103
H        4.4830554654   -3.0626966548   -0.0992970153
H        4.8270607823   -0.9016412920   -3.1473337444
30   

C       -1.3429743427    0.6747019591    0.7788438934
C       -0.2022164642    1.4436071447    0.5455430602
C       -1.2602965374   -0.7161632398    0.7161044426
C        5.9605389664    1.1976761341    0.1148703967
C        1.0184729035    0.8235883441    0.2530448900
C       -0.0392795328   -1.3331217245    0.4242619615
C        5.6995578768    0.4684049125   -1.0410559570
C        5.1088830827    1.0719600225    1.2073482124
C        1.1291328790   -0.5746078033    0.1911146548
C        3.6845206585   -0.4559019296   -0.0397823521
C        4.5897519472   -0.3764184610   -1.1268093857
C        3.9819066931    0.2497284549    1.1470054956
C        2.4217998663   -1.2480046602   -0.1205837588
C        4.1846864374   -2.4796944062   -2.2377649640
C        3.6486950394   -3.1475974859   -0.9678256380
N        2.3993835036   -2.5080184183   -0.5008541528
N        4.4420521225   -1.1299932935   -2.2919319976
O        4.4346835347   -3.1314683964   -3.2396224042
F        3.1942199608    0.1433539557    2.2425923271
H       -2.2887789123    1.1545951741    1.0040252888
H       -0.2627907985    2.5252037808    0.5864822891
H       -2.1421461932   -1.3215648739    0.8925829568
H        6.8297525334    1.8450097425    0.1687058072
H        1.8735546959    1.4601679383    0.0585674497
H       -0.0039650444   -2.4166992773    0.3822248312
H        6.3835518822    0.5470978589   -1.8782782426
H        5.3141758956    1.6162897597    2.1215320816
H        3.4527898600   -4.1996631431   -1.1927588113
H        4.4146464127   -3.1136046352   -0.1879219181
H        4.9254155910   -0.8643403503   -3.1402509688
30   

C       -1.3258188164    0.6897532862    0.8275281347
C       -0.2425820910    1.4405038512    0.3661335026
C       -1.1988096643   -0.6934571557    0.9663571023
C        5.9463826852    1.1518969171    0.2131721772
C        0.9659650511    0.8097103227    0.0480803237
C        0.0102745138   -1.3213091449    0.6483072370
C        5.7239193653    0.4295147990   -0.9547458280
C        5.0471694329    1.0369087130    1.2675363362
C        1.1181926578   -0.5779453543    0.1932471059
C        3.6627337429   -0.4808333631   -0.0367872791
C        4.6087213930   -0.4018730097   -1.0896222888
C        3.9141332420    0.2282139691    1.1594328113
C        2.3944551000   -1.2527502402   -0.1713677642
C        4.1865383303   -2.4686314696   -2.2722605413
C        3.5941555701   -3.1580667083   -1.0407631360
N        2.3504091301   -2.5011039456   -0.5840933570
N        4.4905332737   -1.1281933311   -2.2756282470
O        4.4459792535   -3.0965849209   -3.2868097770
F        3.0802259047    0.1367988307    2.2216380789
H       -2.2627948614    1.1773229467    1.0722370061
H       -0.3394756362    2.5139143004    0.2496305527
H       -2.0374976456   -1.2837456624    1.3176780782
H        6.8199858199    1.7889925742    0.3046700633
H        1.7851464100    1.4159629785   -0.3224205122
H        0.0888487972   -2.3980525423    0.7563075622
H        6.4404176248    0.5064740782   -1.7644828201
H        5.2187319953    1.5799380198    2.1894051891
H        3.3764599411   -4.1967904898   -1.3044026897
H        4.3385516260   -3.1703025670   -0.2396771799
H        5.0080328421   -0.8527295414   -3.1003818282
30   

C       -1.3046330039    0.6989602762    0.8457331693
C       -0.3092788048    1.4099367506    0.1702007368
C       -1.0972394885   -0.6433394291    1.1725696745
C        5.9614732538    1.1062704876    0.2981798220
C        0.8932033564    0.7807096556   -0.1727417035
C        0.1057531220   -1.2697547166    0.8289733801
C        5.7649611766    0.4110740991   -0.8903529439
C        5.0254036820    0.9884174033    1.3191245276
C        1.1242359914   -0.5607883036    0.1655193635
C        3.6625071069   -0.4870004501   -0.0558214265
C        4.6411742799   -0.3982352163   -1.0784189838
C        3.8834515727    0.2011600315    1.1593805897
C        2.3878584588   -1.2329274708   -0.2481526963
C        4.2005239053   -2.4127238063   -2.3492408676
C        3.5593127728   -3.1334653034   -1.1618022313
N        2.3227951331   -2.4643635861   -0.7038323309
N        4.5443205619   -1.0836140598   -2.2907567433
O        4.4674126687   -3.0066836616   -3.3821257094
F        3.0153279886    0.1091609746    2.1937210995
H       -2.2372973759    1.1847197240    1.1097213277
H       -0.4707026239    2.4490640539   -0.0930932561
H       -1.8696282698   -1.2029322039    1.6878248174
H        6.8417093331    1.7268127069    0.4305446167
H        1.6502888553    1.3434265827   -0.7081067694
H        0.2526271516   -2.3160370475    1.0754766769
H        6.5073315354    0.4943559879   -1.6757738944
H        5.1741371775    1.5130832627    2.2554633985
H        3.3211012669   -4.1544525223   -1.4728006323
H        4.2840105844   -3.1986718983   -0.3453995770
H        5.0913880973   -0.7917867669   -3.0904438323
30   

C       -1.3150898644    0.7057048699    0.8560805322
C       -0.4309264309    1.3345403948   -0.0254430670
C       -0.9981886173   -0.5512241988    1.3786947314
C        5.9757530871    1.0336769750    0.4057143077
C        0.7711076543    0.7097294566   -0.3780236384
C        0.2041417707   -1.1732931224    1.0246651208
C        5.7914925128    0.3727486197   -0.8038405302
C        5.0139895290    0.9117911645    1.4016351388
C        1.1110176950   -0.5398070123    0.1575497092
C        3.6531758908   -0.5034982204   -0.0379993061
C        4.6554690241   -0.4071120995   -1.0374666082
C        3.8597385528    0.1531813439    1.1975257727
C        2.3687059663   -1.2163693691   -0.2797109710
C        4.1913360679   -2.3670102077   -2.3868408751
C        3.5085567155   -3.1124898691   -1.2390894787
N        2.2813702380   -2.4288237938   -0.7781080635
N        4.5695793789   -1.0511118937   -2.2733181365
O        4.4619405665   -2.9298613001   -3.4360293702
F        2.9683923775    0.0574810825    2.2113550730
H       -2.2476220113    1.1875025722    1.1276757273
H       -0.6791136129    2.3045664060   -0.4409378466
H       -1.6858782267   -1.0485631696    2.0531667698
H        6.8652584296    1.6321444052    0.5730250469
H        1.4443047196    1.2003684142   -1.0726897298
H        0.4385340379   -2.1561967078    1.4191453549
H        6.5523256237    0.4611705558   -1.5707950887
H        5.1515772367    1.4115508148    2.3531570391
H        3.2499379725   -4.1147916876   -1.5918136411
H        4.2156960800   -3.2267627850   -0.4127728745
H        5.1405716577   -0.7461986884   -3.0511087185
30   

C       -1.3380820595    0.7475585511    0.8333240679
C       -0.5734162984    1.2320261016   -0.2323596141
C       -0.9009376191   -0.3694989171    1.5512486787
C        5.9911151751    0.9683624468    0.5318685266
C        0.6306379848    0.6048018914   -0.5737384607
C        0.3028270835   -0.9947172442    1.2075533234
C        5.8052676174    0.3605434156   -0.7046401746
C        5.0193894306    0.8227413160    1.5144655650
C        1.0910485077   -0.4983622295    0.1556522339
C        3.6456737061   -0.5101658929    0.0090855299
C        4.6580371766   -0.3892654051   -0.9783584043
C        3.8538600962    0.0933530672    1.2712673872
C        2.3503728990   -1.1873814446   -0.2767086218
C        4.1722138759   -2.2801348835   -2.4165333360
C        3.4607073480   -3.0606912227   -1.3106840341
N        2.2426275139   -2.3703711460   -0.8363034276
N        4.5718735774   -0.9774292498   -2.2418926205
O        4.4438304896   -2.8014249161   -3.4867229338
F        2.9551128704   -0.0262793555    2.2750693934
H       -2.2719679244    1.2312066978    1.0968672935
H       -0.9163325719    2.0903118309   -0.7988958770
H       -1.4968250703   -0.7565937839    2.3699245066
H        6.8889471907    1.5446273488    0.7297758256
H        1.2109308522    0.9777419693   -1.4107739404
H        0.6309903426   -1.8717470992    1.7547293831
H        6.5732258965    0.4678734647   -1.4620049013
H        5.1576406340    1.2816592011    2.4862323433
H        3.1853939250   -4.0408203378   -1.7100136811
H        4.1547975013   -3.2255443370   -0.4818718733
H        5.1561358972   -0.6493655434   -3.0001606202
30   

C       -1.3592838725    0.7318279882    0.7412165742
C       -0.7068330862    0.9998996783   -0.4659975371
C       -0.8052420011   -0.1813209915    1.6432702395
C        6.0146302328    0.8814940435    0.6285562397
C        0.5047877718    0.3655113329   -0.7641132626
C        0.4053320818   -0.8158825349    1.3427803495
C        5.8049791234    0.3500780331   -0.6381855572
C        5.0630962942    0.6724412514    1.6186493384
C        1.0873620597   -0.5235980986    0.1491803092
C        3.6572194063   -0.5665734835    0.0614889492
C        4.6532724123   -0.3838355775   -0.9346528800
C        3.8929819747   -0.0423779742    1.3542806951
C        2.3549684202   -1.2225114471   -0.2563019269
C        4.1617313368   -2.1933387187   -2.4691870553
C        3.4562562901   -3.0332228875   -1.4038329486
N        2.2406256888   -2.3635777194   -0.8955477215
N        4.5483755432   -0.8970924904   -2.2291687100
O        4.4305493624   -2.6553702591   -3.5669670138
F        3.0214639331   -0.2253688851    2.3700711142
H       -2.2983181639    1.2220971248    0.9722642671
H       -1.1425821790    1.6946753905   -1.1749746551
H       -1.3169175850   -0.4050073306    2.5724219459
H        6.9154447312    1.4467998892    0.8437505038
H        0.9968043665    0.5658102163   -1.7098795292
H        0.8150293335   -1.5431784387    2.0349200042
H        6.5579894894    0.5049071546   -1.4023098602
H        5.2211190505    1.0701163750    2.6141007214
H        3.1785341716   -3.9905470218   -1.8536065357
H        4.1523900190   -3.2406758871   -0.5863816167
H        5.1221315087   -0.5236832965   -2.9743606090
30   

C       -1.3743743192    0.7201762898    0.6212146183
C       -0.8269817393    0.7176001529   -0.6641960567
C       -0.7135102986    0.0563803965    1.6581147135
C        6.0545230454    0.7935953563    0.6739234784
C        0.3906604434    0.0718642845   -0.9058593123
C        0.5029540710   -0.5923683621    1.4155291406
C        5.7823689772    0.3795631390   -0.6233673090
C        5.1635825000    0.4708192014    1.6887208517
C        1.0926369648   -0.5527874913    0.1381022851
C        3.6785600564   -0.6269425460    0.0971031487
C        4.6244266103   -0.3417356648   -0.9250507238
C        3.9881747254   -0.2346694166    1.4209643552
C        2.3643464633   -1.2594825517   -0.2413071938
C        4.1225819008   -2.0491006808   -2.5602320628
C        3.4617457901   -2.9719545002   -1.5345143321
N        2.2481124324   -2.3499953789   -0.9647123661
N        4.4683866697   -0.7556920536   -2.2495937605
O        4.3757730289   -2.4333234639   -3.6912321755
F        3.1949681101   -0.5433520037    2.4662303358
H       -2.3176096078    1.2205394169    0.8096398635
H       -1.3480044230    1.2110335264   -1.4768034094
H       -1.1510050844    0.0305479691    2.6496699012
H        6.9594267490    1.3505791693    0.8936424689
H        0.7993196150    0.0621569288   -1.9109262045
H        0.9566987058   -1.1507899874    2.2236203132
H        6.4926844940    0.6136665372   -1.4079358282
H        5.3757254999    0.7686149083    2.7087012022
H        3.1883092761   -3.9033557051   -2.0380899214
H        4.1799662319   -3.2167811676   -0.7470061965
H        5.0059826974   -0.3170755298   -2.9861487848
30   

C       -1.3457798999    0.7960250492    0.5082822493
C       -0.9576196859    0.4088691243   -0.7749736830
C       -0.5347624679    0.4817739994    1.6001697471
C        6.0158710112    0.6980364707    0.7981090722
C        0.2400330362   -0.2886128289   -0.9646328797
C        0.6642560572   -0.2163797723    1.4124874357
C        5.6760261635    0.4816798904   -0.5326809860
C        5.2211508018    0.1509173963    1.7997066121
C        1.0719711900   -0.6146682061    0.1226275039
C        3.6612515128   -0.7072596182    0.1432063242
C        4.5313102404   -0.2423404246   -0.8736554936
C        4.0626629542   -0.5657535479    1.4884966863
C        2.3452140741   -1.3322541737   -0.2156694625
C        4.0592068618   -1.8165791996   -2.6328584791
C        3.4896709293   -2.8690339476   -1.6722102275
N        2.2593781268   -2.3676770047   -1.0221635237
N        4.3262704462   -0.5284180700   -2.2246201517
O        4.2973457109   -2.0874787195   -3.7994218825
F        3.3865046899   -1.1568020909    2.4964912263
H       -2.2742329133    1.3360169384    0.6565539091
H       -1.5839601090    0.6481060073   -1.6269077801
H       -0.8365080838    0.7767872687    2.5988115988
H        6.9096385483    1.2591366565    1.0505429648
H        0.5238715413   -0.5773507269   -1.9715474183
H        1.2383364188   -0.4437212575    2.2957671678
H        6.3271464488    0.8617149920   -1.3114479917
H        5.5031922712    0.2697108085    2.8390677170
H        3.2544784085   -3.7687524876   -2.2475900580
H        4.2452997865   -3.1369884629   -0.9282466102
H        4.8088416956    0.0044115427   -2.9366848298
30   

C       -1.3582636835    0.8061164224    0.4889509631
C       -1.1130410898    0.1681754896   -0.7270749577
C       -0.3953808878    0.7619085306    1.4977192898
C        6.0116309437    0.6151560356    0.9010925672
C        0.0869787650   -0.5221218164   -0.9290982367
C        0.8067839206    0.0733051723    1.2972191028
C        5.6853279306    0.4838866239   -0.4452279376
C        5.1986967035    0.0181834754    1.8602519392
C        1.0590044750   -0.6080423121    0.0866607032
C        3.6489236996   -0.7110058632    0.1371393470
C        4.5360644630   -0.2040319144   -0.8410708120
C        4.0347398595   -0.6617201170    1.4921734450
C        2.3335954269   -1.3137094197   -0.2598973565
C        4.0788836995   -1.6964600722   -2.6696955744
C        3.5100353595   -2.7916064183   -1.7552702534
N        2.2687958870   -2.3284542586   -1.0962623862
N        4.3453788873   -0.4267303179   -2.2054296441
O        4.3231338748   -1.9182640576   -3.8453712122
F        3.3257696989   -1.3032872214    2.4492230818
H       -2.2887004880    1.3401945417    0.6459913318
H       -1.8517304588    0.2089190604   -1.5195660413
H       -0.5766420399    1.2685196446    2.4389156531
H        6.9099260719    1.1473679707    1.1964307514
H        0.2499312770   -0.9957029865   -1.8917539432
H        1.5206117019    0.0984949823    2.1053096363
H        6.3515827164    0.8982366170   -1.1930965448
H        5.4705165754    0.0688491916    2.9078688400
H        3.2886321705   -3.6700760600   -2.3677357781
H        4.2616287915   -3.0826250131   -1.0158936446
H        4.8346399416    0.1363932775   -2.8890247944
30   

C       -1.3836888470    0.7697880310    0.5317955285
C       -1.2454929660   -0.0564411356   -0.5830949204
C       -0.3050225235    0.9429276171    1.3986906160
C        6.0134944610    0.5398610831    0.9952449555
C       -0.0368606442   -0.7195874896   -0.8227335962
C        0.9053281646    0.2819212865    1.1601751271
C        5.7267372041    0.4464564833   -0.3634647636
C        5.1503680814   -0.0470415479    1.9160712597
C        1.0542852004   -0.5929591113    0.0599327243
C        3.6412978568   -0.7031096428    0.1279889030
C        4.5717431385   -0.1993473996   -0.8108607496
C        3.9791767459   -0.6827706813    1.4966308432
C        2.3300522376   -1.2797451729   -0.3125517803
C        4.1329487012   -1.6317039793   -2.6897797855
C        3.5281955858   -2.7392130567   -1.8149845335
N        2.2782586442   -2.2775960917   -1.1711260295
N        4.4159192281   -0.3817324940   -2.1851771453
O        4.3999352942   -1.8282508566   -3.8650282409
F        3.1996962555   -1.2942475327    2.4193033658
H       -2.3206155523    1.2830881914    0.7170010691
H       -2.0748843562   -0.1831909181   -1.2696913345
H       -0.4016992941    1.5997382705    2.2557778124
H        6.9172610009    1.0383866673    1.3300830136
H        0.0303901501   -1.3401562221   -1.7101258851
H        1.7139513536    0.4878486219    1.8457438996
H        6.4280984757    0.8571438601   -1.0806465230
H        5.3855247578   -0.0197308907    2.9734260015
H        3.3098963237   -3.5997842074   -2.4533959042
H        4.2591535488   -3.0581065418   -1.0665097729
H        4.9336742254    0.1893221185   -2.8406271472
30   

C       -1.3959364676    0.7308932444    0.5957829442
C       -1.3379368604   -0.2479746431   -0.3956908115
C       -0.2357910873    1.0821016155    1.2850094277
C        6.0054971515    0.4600393288    1.0702670976
C       -0.1262386659   -0.8839998042   -0.6885068288
C        0.9769444649    0.4480015386    0.9929685035
C        5.7684874434    0.3927556499   -0.2994977699
C        5.0854194151   -0.1021574705    1.9499716344
C        1.0523946150   -0.5748946119    0.0188859514
C        3.6319643123   -0.6998571357    0.0949870440
C        4.6115398754   -0.2088960890   -0.8008861351
C        3.9111388944   -0.6928472741    1.4777068120
C        2.3251406760   -1.2411842249   -0.3933222778
C        4.1878534002   -1.5711517511   -2.7363982608
C        3.5281727216   -2.6843156166   -1.9122796742
N        2.2747767728   -2.2100986481   -1.2848718967
N        4.4983250987   -0.3492006409   -2.1841569486
O        4.4826535717   -1.7406883420   -3.9092066710
F        3.0601350152   -1.2593830505    2.3651798581
H       -2.3351179436    1.2235347809    0.8212590250
H       -2.2331121188   -0.5152919083   -0.9457389607
H       -0.2715527602    1.8564975634    2.0428676310
H        6.9114563488    0.9241374913    1.4461836936
H       -0.1286518701   -1.6295122730   -1.4765720869
H        1.8500128017    0.7906411191    1.5311087766
H        6.5092234519    0.7914669375   -0.9830850284
H        5.2753326073   -0.0871798575    3.0166627185
H        3.3037915657   -3.5189362455   -2.5822439885
H        4.2300725948   -3.0461125011   -1.1555834265
H        5.0534780957    0.2243297438   -2.8059789515
30   

C       -1.3921573655    0.6951800870    0.6659555576
C       -1.3800389723   -0.4103956182   -0.1848335743
C       -0.1886338840    1.1980902225    1.1601927664
C        5.9903134257    0.3835188299    1.1511296881
C       -0.1686602618   -1.0188420997   -0.5330618207
C        1.0232108229    0.5912566419    0.8125741603
C        5.8114165033    0.3296507275   -0.2278512008
C        5.0107867884   -0.1430159066    1.9869928131
C        1.0564389666   -0.5485410046   -0.0233314457
C        3.6261316705   -0.6973844874    0.0657491627
C        4.6576978998   -0.2288467969   -0.7841514390
C        3.8387605598   -0.6908230359    1.4612232612
C        2.3243245580   -1.1945799769   -0.4736934371
C        4.2491095149   -1.5203840547   -2.7753722174
C        3.5208104973   -2.6291595438   -2.0080182777
N        2.2680658974   -2.1301731979   -1.3995551871
N        4.5946623312   -0.3326046880   -2.1739696503
O        4.5751472696   -1.6660658401   -3.9430942081
F        2.9232363496   -1.2123933789    2.3109449093
H       -2.3312225562    1.1664038164    0.9336930491
H       -2.3112601956   -0.7984569115   -0.5817554514
H       -0.1914830291    2.0672493683    1.8081356586
H        6.8944342731    0.8142449749    1.5688754245
H       -0.2046645654   -1.8703425572   -1.2042860348
H        1.9330444682    1.0388722359    1.1922654601
H        6.5936629164    0.7086275990   -0.8754940401
H        5.1504508025   -0.1317697877    3.0614840466
H        3.2853992019   -3.4329431288   -2.7110924791
H        4.1854343920   -3.0419859416   -1.2438548917
H        5.1931397418    0.2355588055   -2.7594826943
