15   
Generated by ForceBalance from scan.xyz: Frame 1 of 24
C       -1.8337153219   -1.1399414938   -1.0746225361
C       -1.7602143935   -1.0310409895    1.4969925619
C       -1.2936931356    0.2918526621    0.9738950806
C       -1.0317671103   -0.9838142442    0.1664594570
C       -1.7323395135   -1.5379809031   -3.4020389748
O       -3.0435210758   -1.0079674594   -1.1538055238
O       -1.0410017729   -1.4043210007   -2.1433126647
H       -1.2263617284   -1.4794557049    2.3291759628
H       -2.8229792954   -1.2434839858    1.4481453866
H       -2.0419698240    0.9696572989    0.5762769492
H       -0.4284407549    0.7633005526    1.4293095535
H       -0.0073590476   -1.3345456371    0.1129923020
H       -0.9571561908   -1.7509607017   -4.1382213970
H       -2.2555027396   -0.6113642101   -3.6501315619
H       -2.4554150468   -2.3557941692   -3.3561937784
15   
Generated by ForceBalance from scan.xyz: Frame 2 of 24
C       -1.8043660860   -1.0133472527   -1.1074904975
C       -1.7346536838   -1.0864665334    1.4597402421
C       -1.3369666060    0.2968561577    1.0486085123
C       -1.0055689012   -0.8821649571    0.1374068565
C       -1.7392762831   -1.6096538689   -3.3932727292
O       -2.9909859020   -0.7515029853   -1.2134127672
O       -1.0438864754   -1.4589294212   -2.1385985867
H       -1.1766157248   -1.5784036175    2.2503223720
H       -2.7848111184   -1.3492708391    1.3879648805
H       -2.1203662482    0.9627513592    0.7021222038
H       -0.4996751812    0.7726999849    1.5494875500
H        0.0298838000   -1.1950822453    0.0669337731
H       -0.9901219441   -1.9676697960   -4.0995425906
H       -2.1500835956   -0.6512873603   -3.7196536297
H       -2.5525449189   -2.3325978700   -3.2945633854
15   
Generated by ForceBalance from scan.xyz: Frame 3 of 24
C       -1.7720746259   -0.8876575709   -1.1428107709
C       -1.7042535341   -1.1409341241    1.4079369835
C       -1.3793742422    0.2922891379    1.1119243340
C       -0.9824061518   -0.7787054983    0.1105168014
C       -1.7622062316   -1.6736302728   -3.3714269744
O       -2.9210536903   -0.5046988172   -1.2869043609
O       -1.0628274666   -1.5033735104   -2.1214599301
H       -1.1218486835   -1.6688581652    2.1565110905
H       -2.7395654266   -1.4510901825    1.3115609717
H       -2.1978917900    0.9398196220    0.8155921727
H       -0.5728880256    0.7689194227    1.6604032450
H        0.0638309861   -1.0510024244    0.0291127362
H       -1.0558393985   -2.1741194129   -4.0338229348
H       -2.0540819500   -0.7037347120   -3.7811198666
H       -2.6562019406   -2.2852229657   -3.2281129838
15   
Generated by ForceBalance from scan.xyz: Frame 4 of 24
C       -1.7312485092   -0.7753965863   -1.1818703201
C       -1.6708656617   -1.1937050833    1.3442525954
C       -1.4259014314    0.2775602581    1.1565477666
C       -0.9619188579   -0.6848995668    0.0873927507
C       -1.7814459749   -1.7351772992   -3.3409764312
O       -2.8235552781   -0.2728805078   -1.3843586397
O       -1.0892398707   -1.5536288310   -2.0887001854
H       -1.0637715025   -1.7437127231    2.0563641263
H       -2.6868871792   -1.5542459096    1.2197835979
H       -2.2784866430    0.8977979305    0.9006021188
H       -0.6558143055    0.7562181164    1.7534759224
H        0.0957528160   -0.9102911115    0.0047371872
H       -1.1299838803   -2.3675864923   -3.9441926385
H       -1.9451639299   -0.7723498285   -3.8307856681
H       -2.7460391557   -2.2213527041   -3.1763205787
15   
Generated by ForceBalance from scan.xyz: Frame 5 of 24
C       -1.6857120664   -0.6753908118   -1.2103136527
C       -1.6294772309   -1.2409966792    1.2884235593
C       -1.4802318329    0.2573757593    1.1973349464
C       -0.9459939270   -0.5998704698    0.0809227099
C       -1.8041850439   -1.7847153521   -3.2942450273
O       -2.6972285836   -0.0550664232   -1.4880481953
O       -1.1316697641   -1.6021488373   -2.0315485561
H       -0.9952416628   -1.7949399407    1.9733054887
H       -2.6193635907   -1.6589889189    1.1340242631
H       -2.3690710349    0.8373507826    0.9718338198
H       -0.7531862814    0.7449384758    1.8394187863
H        0.1241567989   -0.7628960550    0.0037437315
H       -1.2268673411   -2.5423558486   -3.8242520626
H       -1.8214643928   -0.8490335767   -3.8582006880
H       -2.8302753551   -2.1243717953   -3.1336833326
15   
Generated by ForceBalance from scan.xyz: Frame 6 of 24
C       -1.6437338255   -0.5937827806   -1.2407065791
C       -1.5725313245   -1.2853224657    1.2386270088
C       -1.5336024978    0.2278986424    1.2216042737
C       -0.9364362971   -0.5364164906    0.0746405270
C       -1.8484527479   -1.8110110727   -3.2572910575
O       -2.5346624564    0.1520239900   -1.6056402783
O       -1.2127271761   -1.6514764153   -1.9725831515
H       -0.9057882544   -1.8232455973    1.9052781819
H       -2.5292683753   -1.7674321085    1.0618476160
H       -2.4608023332    0.7546643892    1.0206335649
H       -0.8500178089    0.7344630519    1.8959704612
H        0.1442711607   -0.6178648374    0.0015793129
H       -1.3770080061   -2.6841297331   -3.7085484429
H       -1.6903862233   -0.9246642044   -3.8764780436
H       -2.9218838156   -1.9734610667   -3.1333480354
15   
Generated by ForceBalance from scan.xyz: Frame 7 of 24
C       -1.6020085154   -0.5319635350   -1.2554214622
C       -1.5101493573   -1.3213905032    1.2152791851
C       -1.6051014544    0.1928346918    1.2453736186
C       -0.9346447366   -0.4877186756    0.0864129478
C       -1.9032272718   -1.8261600185   -3.2110509044
O       -2.3287273583    0.3274300574   -1.7188041818
O       -1.3223221088   -1.6934544286   -1.8973585189
H       -0.8101903762   -1.8171895211    1.8807835523
H       -2.4188398142   -1.8811508540    1.0148882797
H       -2.5729511165    0.6449891645    1.0534663254
H       -0.9764528894    0.7363788844    1.9440020265
H        0.1504679980   -0.4580777361    0.0251670019
H       -1.5688479880   -2.7957534722   -3.5802166861
H       -1.5564007765   -1.0235715450   -3.8665383373
H       -2.9936750419   -1.7916317537   -3.1505741703
15   
Generated by ForceBalance from scan.xyz: Frame 8 of 24
C       -1.5360721616   -0.4933424512   -1.2820873156
C       -1.4370065547   -1.3542735197    1.1870165030
C       -1.6818626000    0.1430002045    1.2388070348
C       -0.9192561266   -0.4566117200    0.0872951335
C       -1.9618176751   -1.8410592086   -3.1770575212
O       -2.0603838077    0.4501696515   -1.8437551484
O       -1.4339450912   -1.7252064562   -1.8392728340
H       -0.7127823686   -1.7889504773    1.8693391471
H       -2.2799002600   -1.9977103276    0.9538186979
H       -2.6853635727    0.5027526841    1.0337776072
H       -1.1264027014    0.7351360381    1.9595932373
H        0.1554278152   -0.2912408700    0.0555802488
H       -1.7889210392   -2.8769005055   -3.4691457253
H       -1.4429698450   -1.1574683176   -3.8534292525
H       -3.0298247791   -1.6103967540   -3.1867428626
15   
Generated by ForceBalance from scan.xyz: Frame 9 of 24
C       -1.4240448615   -0.4734840788   -1.3075230760
C       -1.3594488125   -1.3816888412    1.1619027521
C       -1.7661906592    0.0765062252    1.2056610121
C       -0.8783291170   -0.4335421799    0.0915489810
C       -2.0022901693   -1.8481033852   -3.1405386354
O       -1.7247453843    0.5083349405   -1.9605409192
O       -1.5127928716   -1.7382298461   -1.7875932706
H       -0.6323759608   -1.7395948423    1.8848476158
H       -2.1118352694   -2.1111143821    0.8793593982
H       -2.7911015460    0.3287215403    0.9508885073
H       -1.3153919644    0.7227822052    1.9524613971
H        0.1631307908   -0.1224857797    0.1184843919
H       -2.0130588471   -2.9157078860   -3.3601734805
H       -1.3400241166   -1.3184384629   -3.8294727006
H       -3.0077710577   -1.4274766961   -3.2181348329
15   
Generated by ForceBalance from scan.xyz: Frame 10 of 24
C       -1.3153107675   -0.4479190882   -1.2948940393
C       -1.2740122757   -1.4017842214    1.1650405653
C       -1.8411681873   -0.0041347880    1.1908331656
C       -0.8319183468   -0.4041068151    0.1227972797
C       -2.0852138192   -1.8028907405   -3.0708973229
O       -1.4070129876    0.5301956446   -2.0136935791
O       -1.6063608587   -1.7047534741   -1.7134329982
H       -0.5531318797   -1.6801121831    1.9282305146
H       -1.9200781725   -2.2085549923    0.8356170665
H       -2.8715253372    0.1352348019    0.8776536702
H       -1.5053543311    0.6860003185    1.9585271838
H        0.1536829970    0.0434610265    0.2102864677
H       -2.2835570530   -2.8623049149   -3.2337890527
H       -1.3264826412   -1.4402256972   -3.7683027446
H       -2.9973059687   -1.2149418083   -3.1986468633
15   
Generated by ForceBalance from scan.xyz: Frame 11 of 24
C       -1.2214025673   -0.4460769331   -1.3160477100
C       -1.2027381823   -1.4045106630    1.1442177308
C       -1.9140411149   -0.0805564665    1.1297349078
C       -0.8046221800   -0.3712145169    0.1156288576
C       -2.1634015043   -1.7763007022   -3.0273332021
O       -1.1248295799    0.4802666304   -2.1006530132
O       -1.7014735980   -1.6667757955   -1.6654011207
H       -0.4944998195   -1.5992210068    1.9442669537
H       -1.7396649742   -2.2759057198    0.7864339538
H       -2.9336217446   -0.0537496615    0.7572987699
H       -1.6940048415    0.6476051034    1.9040506871
H        0.1158700776    0.1861582137    0.2531295266
H       -2.5285381587   -2.7983483763   -3.1297298036
H       -1.3421667860   -1.5884357815   -3.7228189707
H       -2.9650242614   -1.0590146987   -3.2193052189
15   
Generated by ForceBalance from scan.xyz: Frame 12 of 24
C       -1.1317723239   -0.4659990184   -1.3359295196
C       -1.1373847910   -1.4122386792    1.1266583891
C       -1.9577066684   -0.1575526884    1.0793688675
C       -0.7864281593   -0.3484501214    0.1073571808
C       -2.2076975139   -1.7516968452   -3.0027006689
O       -0.8549650899    0.3740215733   -2.1735962367
O       -1.7877217072   -1.6189489846   -1.6298500414
H       -0.4422629322   -1.5413571687    1.9510169821
H       -1.5832000038   -2.3263346104    0.7516644742
H       -2.9586047464   -0.2202492989    0.6640578037
H       -1.8296153749    0.5887915408    1.8569970726
H        0.0806990797    0.2795592825    0.2781424322
H       -2.7218891632   -2.7113585462   -3.0585253975
H       -1.3414382786   -1.7389928506   -3.6680872361
H       -2.8815830499   -0.9366951176   -3.2778598711
15   
Generated by ForceBalance from scan.xyz: Frame 13 of 24
C       -1.0989579946   -0.4592619601   -1.3346298979
C       -1.0788422465   -1.3947649372    1.1243210090
C       -2.0032176155   -0.2167306846    1.0772317492
C       -0.8136444044   -0.2916579197    0.1141154854
C       -2.2546691007   -1.7078027296   -2.9770857557
O       -0.6727656864    0.2769838891   -2.2067753806
O       -1.8965167835   -1.5298654393   -1.5923280318
H       -0.3778720345   -1.4688680320    1.9503009103
H       -1.4397385739   -2.3399513771    0.7352644852
H       -2.9895275113   -0.3630388487    0.6495039598
H       -1.9454011970    0.5309629512    1.8620656728
H        0.0046596575    0.3946742986    0.2986280169
H       -2.8945630262   -2.5900823805   -3.0015649493
H       -1.3602037894   -1.8634758501   -3.5846497447
H       -2.7916067089   -0.8320009460   -3.3494552649
15   
Generated by ForceBalance from scan.xyz: Frame 14 of 24
C       -1.0965942774   -0.4851277085   -1.3196443514
C       -1.0402900351   -1.3953737448    1.1350645086
C       -2.0487517141   -0.2870702779    1.1000044369
C       -0.8688352530   -0.2623638452    0.1310133718
C       -2.3009413324   -1.7002295611   -2.9532881739
O       -0.5234318153    0.1226190423   -2.2064605415
O       -2.0240004865   -1.4502991264   -1.5612778252
H       -0.3279028664   -1.4250677025    1.9538136402
H       -1.3340278480   -2.3605418764    0.7379171807
H       -3.0240206440   -0.5030792763    0.6777825807
H       -2.0377183895    0.4551638864    1.8921102473
H       -0.0866654499    0.4645746009    0.3167683738
H       -3.0534449914   -2.4889861309   -2.9637231369
H       -1.3951175490   -2.0250841458   -3.4705587549
H       -2.6831289324   -0.7970205259   -3.4349716440
15   
Generated by ForceBalance from scan.xyz: Frame 15 of 24
C       -1.0819752071   -0.4932677473   -1.3272387293
C       -0.9739469770   -1.3689898368    1.1219802951
C       -2.0633050235   -0.3373460988    1.1036246373
C       -0.9085462244   -0.2160423100    0.1216669629
C       -2.3186447637   -1.6683537061   -2.9658486504
O       -0.3771288319   -0.0272404391   -2.2048424876
O       -2.1211118798   -1.3340152006   -1.5779248076
H       -0.2472393527   -1.3516007578    1.9281611395
H       -1.2022415497   -2.3513732181    0.7227811998
H       -3.0255110658   -0.6251550919    0.6952625300
H       -2.0965375984    0.3979676316    1.9017346963
H       -0.1646654941    0.5508090890    0.3048456297
H       -3.1768251596   -2.3404191696   -2.9845141625
H       -1.4325057244   -2.1640601021   -3.3695745533
H       -2.5216671870   -0.7678026688   -3.5500601007
15   
Generated by ForceBalance from scan.xyz: Frame 16 of 24
C       -1.0943917633   -0.5201836051   -1.3244111726
C       -0.9167832878   -1.3357971883    1.1270153613
C       -2.0911281395   -0.3965761290    1.1160064054
C       -0.9704821218   -0.1865226262    0.1193622331
C       -2.3653022257   -1.6283576564   -2.9823138816
O       -0.2793266086   -0.2015354518   -2.1717497265
O       -2.2230713334   -1.2230042908   -1.6062294058
H       -0.1807143794   -1.2533990853    1.9203939642
H       -1.0691888250   -2.3382147717    0.7402497877
H       -3.0324960540   -0.7682101615    0.7276493424
H       -2.1739836366    0.3364116886    1.9128075822
H       -0.2757533145    0.6283512734    0.2898441073
H       -3.3054576423   -2.1782957095   -3.0285013445
H       -1.5304370616   -2.2666938754   -3.2816519323
H       -2.3980054437   -0.7532614563   -3.6353683597
15   
Generated by ForceBalance from scan.xyz: Frame 17 of 24
C       -1.5573491993   -1.7842542008   -0.9694556931
C       -2.0483647587   -0.4942887784    1.2159898327
C       -0.7539407132    0.0940165333    0.7132779058
C       -1.0922726053   -1.3372691841    0.3739889019
C       -2.0485012758   -1.1519339094   -3.1936162791
O       -1.8973380927   -2.9253547245   -1.2254546132
O       -1.5511071967   -0.7862639556   -1.8904006775
H       -2.1395373731   -0.7566648212    2.2651381215
H       -2.9691256371   -0.1654298585    0.7441128009
H       -0.8063641513    0.8191740448   -0.0908858217
H        0.0511742893    0.2499873794    1.4250908487
H       -0.5811488332   -2.1312956795    0.9081799969
H       -1.9905626544   -0.2432956240   -3.7931373757
H       -3.0807443067   -1.5037487128   -3.1252038532
H       -1.4303468675   -1.9408451524   -3.6282302594
15   
Generated by ForceBalance from scan.xyz: Frame 18 of 24
C       -1.6268774531   -1.7400313075   -0.9805719661
C       -2.0253445643   -0.5586265838    1.2875264826
C       -0.8102915019    0.1299612832    0.7072997933
C       -1.0905391272   -1.3052302790    0.3453560817
C       -1.9800776419   -1.1686758790   -3.2461223482
O       -2.1387446924   -2.8260712608   -1.1828329831
O       -1.4554902681   -0.8081083928   -1.9516210482
H       -2.0172106482   -0.8560593221    2.3312801452
H       -3.0003638815   -0.2735580131    0.9038528584
H       -0.9707414291    0.8763848731   -0.0628897654
H        0.0355665418    0.3200602463    1.3613165480
H       -0.4915916268   -2.0827386255    0.8099000909
H       -1.7718702048   -0.3159686392   -3.8925277491
H       -3.0552544169   -1.3539104460   -3.1857174816
H       -1.4835610865   -2.0670356050   -3.6200981954
15   
Generated by ForceBalance from scan.xyz: Frame 19 of 24
C       -1.7049427184   -1.6868314715   -0.9918653547
C       -1.9940979431   -0.6298872096    1.3612838184
C       -0.8762374709    0.1593982408    0.7098910037
C       -1.1025423486   -1.2769589767    0.3188096053
C       -1.9151860264   -1.2017028951   -3.2946558115
O       -2.3883589280   -2.6817735566   -1.1477884426
O       -1.3714484990   -0.8499163815   -2.0052281335
H       -1.8768374053   -0.9554098062    2.3901333167
H       -3.0149525188   -0.3966407732    1.0739970542
H       -1.1489653799    0.9206273935   -0.0135624255
H        0.0070653649    0.3877142663    1.2989457148
H       -0.4092951575   -2.0257142580    0.6930669270
H       -1.5575977696   -0.4337973702   -3.9806675496
H       -3.0072846171   -1.2101916827   -3.2596388041
H       -1.5604671419   -2.1887522523   -3.6003879344
15   
Generated by ForceBalance from scan.xyz: Frame 20 of 24
C       -1.7876543747   -1.6214321689   -0.9909496510
C       -1.9574504726   -0.6995264477    1.4345714991
C       -0.9544856409    0.1888790037    0.7241593990
C       -1.1210262313   -1.2500121249    0.3035625924
C       -1.8626416184   -1.2432589109   -3.3226989169
O       -2.6465482281   -2.4750139742   -1.1107484022
O       -1.2967707338   -0.9125168141   -2.0371447775
H       -1.7313731463   -1.0398812882    2.4403817156
H       -3.0128096748   -0.5348758341    1.2399706738
H       -1.3375531669    0.9524177653    0.0544216528
H       -0.0418427451    0.4624452508    1.2452499235
H       -0.3315074561   -1.9475527195    0.5735429086
H       -1.3583119869   -0.5938692163   -4.0383034023
H       -2.9394287107   -1.0575354531   -3.3247583203
H       -1.6815628795   -2.2942501856   -3.5602161927
15   
Generated by ForceBalance from scan.xyz: Frame 21 of 24
C       -1.8414624097   -1.5499693657   -0.9891697112
C       -1.9124225053   -0.7739847949    1.4885092513
C       -1.0371855812    0.2135960571    0.7476433164
C       -1.1216254026   -1.2288935863    0.2894430018
C       -1.8096427480   -1.2955810116   -3.3394528195
O       -2.8654246461   -2.2010669261   -1.0808051597
O       -1.2092249239   -1.0081878193   -2.0594676965
H       -1.5920155475   -1.1199942674    2.4665431523
H       -2.9882129298   -0.6960717951    1.3659937901
H       -1.5251014757    0.9633092705    0.1320963748
H       -0.1118568839    0.5430957521    1.2104995473
H       -0.2434630292   -1.8478542381    0.4561812186
H       -1.1772743332   -0.7987906812   -4.0753232018
H       -2.8288489373   -0.9037331162   -3.3790464247
H       -1.8346136422   -2.3734948170   -3.5171153187
15   
Generated by ForceBalance from scan.xyz: Frame 22 of 24
C       -1.8582577733   -1.4660561865   -1.0098509432
C       -1.8639153051   -0.8475331006    1.5067543641
C       -1.1196733586    0.2357720448    0.7677805439
C       -1.1030300487   -1.2010257761    0.2561270656
C       -1.7581061470   -1.3383593945   -3.3690042328
O       -3.0016820455   -1.8770597761   -1.0866436754
O       -1.1185286482   -1.1235855271   -2.0942029965
H       -1.4625392973   -1.1958056355    2.4536796796
H       -2.9466822881   -0.8640297279    1.4351230074
H       -1.7008881272    0.9603698986    0.2053068856
H       -0.1983493247    0.6240905413    1.1910701364
H       -0.1562757949   -1.7271417041    0.3373290381
H       -1.0259429301   -1.0333457565   -4.1167739166
H       -2.6641406116   -0.7325484896   -3.4471877268
H       -2.0209435950   -2.3915888233   -3.4942012296
15   
Generated by ForceBalance from scan.xyz: Frame 23 of 24
C       -1.8608999487   -1.3717815154   -1.0228627760
C       -1.8236340185   -0.9133721917    1.5205940042
C       -1.1922271501    0.2573116336    0.8212520276
C       -1.0810517827   -1.1524078826    0.2302364459
C       -1.7342249499   -1.3962351497   -3.3836736754
O       -3.0623829391   -1.5621545604   -1.0904065472
O       -1.0662351495   -1.2419950987   -2.1149028291
H       -1.3628615597   -1.2790437224    2.4332425252
H       -2.9035174101   -1.0088872696    1.4755059595
H       -1.8465018046    0.9585578643    0.3124159247
H       -0.2849508129    0.6909332112    1.2303420231
H       -0.0930957336   -1.6007523815    0.2495322078
H       -0.9561941364   -1.2789238056   -4.1381091532
H       -2.5055096087   -0.6314961194   -3.5033921187
H       -2.1959158272   -2.3838725442   -3.4569069143
15   
Generated by ForceBalance from scan.xyz: Frame 24 of 24
C       -1.8540769522   -1.2678989055   -1.0492495732
C       -1.7946950800   -0.9792084569    1.5138759170
C       -1.2530856643    0.2721812374    0.8910214221
C       -1.0605809144   -1.0824784333    0.1958697653
C       -1.7265808665   -1.4734170492   -3.4007101585
O       -3.0711218686   -1.2837621132   -1.1181047033
O       -1.0455337399   -1.3410775016   -2.1363289677
H       -1.2924705674   -1.3816942812    2.3882322748
H       -2.8670587341   -1.1387658742    1.4732943383
H       -1.9600631094    0.9594021080    0.4372473767
H       -0.3656693346    0.7323468467    1.3143411777
H       -0.0499266911   -1.4749389887    0.1735738767
H       -0.9379747417   -1.5322423595   -4.1509716363
H       -2.3664668014   -0.6062870637   -3.5813814100
H       -2.3387365455   -2.3783408718   -3.4134138673
