61

C      6.58218   -2.53852   -5.08605
C      8.99188   -2.31056   -4.94623
C      6.67804   -2.60107   -6.48178
C      9.08623   -2.37257   -6.33315
C      7.74141   -2.39279   -4.31088
C      7.92360   -2.51816   -7.09765
C     -1.37395   -2.22857    0.45819
C     -1.92301   -0.92347   -0.13039
C      0.03879   -2.02932    1.00927
C      0.43515   -0.18577   -0.49271
C      3.24519   -2.99032   -1.39248
C      3.26602   -1.57863   -0.80517
C     -0.95603   -0.28100   -1.14840
C      5.41153   -2.35862    0.01126
C     -0.87148   -1.11742   -2.43768
C     -1.43990    1.13548   -1.49364
C      5.55841   -2.26901    1.53384
C      7.48769   -0.96190   -0.45457
C      7.69801   -3.46916   -0.31808
C      2.32151   -1.43047    0.39760
C      6.50996   -2.40103   -2.25404
C      6.78403   -2.30584   -0.74223
N      0.92436   -1.48604   -0.02524
O      4.62080   -1.26322   -0.46588
O      7.76049   -2.32193   -2.94924
S      4.43264   -3.92661   -0.37244
Cl     8.04069   -2.59728   -8.85196
H      5.60422   -2.60621   -4.62474
H      9.88175   -2.19813   -4.33398
H      5.78085   -2.71481   -7.08230
H     10.05412   -2.30889   -6.82045
H     -2.02952   -2.58502    1.26105
H     -1.34955   -3.01171   -0.30721
H     -2.89930   -1.09459   -0.60001
H     -2.08960   -0.20996    0.68846
H     -0.00043   -1.35985    1.89234
H      0.44825   -2.98697    1.34683
H      1.14637    0.22305   -1.21827
H      0.38945    0.53461    0.34873
H      2.25048   -3.43044   -1.30246
H      3.54864   -2.99389   -2.44283
H      2.98856   -0.85264   -1.57529
H     -0.22959   -0.62228   -3.17602
H     -1.86330   -1.23983   -2.88769
H     -0.45281   -2.10827   -2.24795
H     -0.76208    1.62513   -2.20294
H     -1.50345    1.76525   -0.59881
H     -2.43476    1.10477   -1.95219
H      4.57172   -2.24100    1.99696
H      6.09455   -1.35938    1.81469
H      6.09421   -3.13240    1.93512
H      8.36569   -0.86523   -1.09741
H      6.82062   -0.11837   -0.65028
H      7.82859   -0.90195    0.58230
H      8.61490   -3.44999   -0.91175
H      7.21422   -4.43821   -0.47615
H      7.98183   -3.39127    0.73484
H      2.57031   -0.49618    0.92890
H      2.50876   -2.25704    1.08821
H      5.86377   -1.57543   -2.56957
H      6.02516   -3.35421   -2.49018
