54

C     -6.37867   -1.16236    6.61096
C     -5.21603   -2.61632    5.09407
C     -5.84027   -1.84762    7.69468
C     -4.66090   -3.31882    6.17047
C     -6.07814   -1.53489    5.29101
C     -4.97315   -2.93119    7.47999
C     -2.33039   -0.28260    4.24564
C     -3.79026   -0.53268    2.54930
C     -1.10397   -0.31585    1.04469
C     -1.04519   -0.44287    4.99125
C      0.12353   -0.64912    4.01227
C     -0.22295   -1.72648    2.97326
C     -7.24516   -1.44979    2.97116
C     -8.07020   -0.58176    3.89919
C     -2.19747   -1.69221   -0.85234
C     -1.25998    0.18233   -1.40500
C     -1.45494   -1.36012    2.12166
C     -2.24089   -0.78538   -2.10176
C     -6.58170   -0.73550    4.12649
C     -3.61457   -4.65002    8.44025
C     -5.72503    0.48366    3.79255
N     -3.42423    0.28673    4.66472
N     -2.49454   -0.81857    2.98269
N     -4.32436    0.14576    3.61307
N     -1.25039   -0.72310   -0.24041
O     -4.29469   -0.82695    1.45812
O     -0.67750    0.80119    1.34274
O     -4.49187   -3.54325    8.60903
F     -1.71511   -1.38490   -3.24543
H     -7.04466   -0.32093    6.78911
H     -4.96976   -2.91897    4.07902
H     -6.07396   -1.56383    8.71684
H     -4.00016   -4.15633    5.97484
H     -0.89150    0.42917    5.63128
H     -1.13566   -1.31479    5.65235
H      0.35062    0.28819    3.49969
H      1.01542   -0.95408    4.56873
H      0.62262   -1.90210    2.30179
H     -0.43279   -2.67458    3.48391
H     -7.36821   -2.52539    3.05268
H     -7.03125   -1.09132    1.96965
H     -8.43550    0.37075    3.52270
H     -8.73743   -1.07643    4.59852
H     -3.13821   -1.77695   -0.30393
H     -1.75409   -2.67298   -1.04957
H     -0.29119    0.26613   -1.90562
H     -1.64611    1.17703   -1.16622
H     -1.85088   -2.26067    1.64623
H     -3.21949   -0.37851   -2.36016
H     -3.35530   -4.98335    9.44623
H     -2.69958   -4.35946    7.90806
H     -4.10322   -5.47129    7.90081
H     -5.75806    1.21543    4.60303
H     -6.08448    0.95963    2.87529
