56

C      0.49081    0.72426    3.52504
C     -0.39730    2.94558    3.70728
C      1.02448    0.82222    4.80607
C      0.12777    3.05836    5.00175
C     -0.23044    1.78522    2.94737
C      0.84595    1.99355    5.55726
C     -2.30740   -1.39888   -0.38620
C     -1.30288   -2.40655   -0.98934
C      0.41717    1.83906    0.49894
C      0.97206    0.48454    0.05171
C     -1.51970    0.37711    1.27561
C     -1.53478   -0.06135   -0.19310
C      0.07548   -1.85927   -0.58943
C     -0.75271    1.69803    1.51679
C     -0.08741   -0.32125   -0.72846
C     -0.01600    0.05631   -2.22049
C      2.74179   -2.74143    0.61893
C      1.29496   -3.35098    2.58070
C      0.98108   -4.54501    0.39164
C      1.23412    3.16082    7.60801
C      1.34412   -3.20851    1.05684
O     -1.65146    2.81709    1.34585
O      1.40342    1.99422    6.81193
O      0.35205   -2.19383    0.77747
H      0.63892   -0.20085    2.97782
H     -0.95351    3.77474    3.28564
H      1.57747   -0.00216    5.24771
H     -0.03474    3.97592    5.55669
H     -3.19129   -1.27811   -1.01932
H     -2.65962   -1.75989    0.58467
H     -1.45208   -3.42326   -0.62089
H     -1.38433   -2.44021   -2.08078
H      1.20215    2.46551    0.93139
H      0.04040    2.38129   -0.37838
H      1.86013    0.63352   -0.57407
H      1.29995   -0.08188    0.92345
H     -2.53917    0.51657    1.65111
H     -1.07823   -0.43416    1.85547
H     -2.00195    0.72645   -0.79946
H      0.87446   -2.22509   -1.24205
H     -0.83234   -0.38297   -2.80199
H      0.93095   -0.26943   -2.66667
H     -0.08128    1.14309   -2.34239
H      2.81263   -2.61510   -0.46554
H      2.99023   -1.78685    1.09125
H      3.49674   -3.47788    0.91336
H      0.28837   -3.63423    2.90187
H      1.55335   -2.40263    3.06129
H      2.00067   -4.11427    2.92297
H     -0.00870   -4.87830    0.71758
H      0.97695   -4.46891   -0.69986
H      1.71010   -5.31425    0.66694
H      1.74231    2.95636    8.55176
H      0.17335    3.36282    7.80376
H      1.68924    4.04000    7.13435
H     -1.97005    2.78992    0.43024
