65

C     -6.04866   -5.67338   11.20059
C     -6.40588   -4.61533   10.32714
C      6.12450    1.57779   -2.54132
C      7.09958    0.65949   -2.10890
C     -4.78376   -6.22402   11.14033
C     -5.49347   -4.12871    9.41188
C      4.86161    1.61154   -1.94585
C      2.13944    1.06642    0.02636
C      6.83520   -0.24691   -1.07750
C      1.24612    0.60836    0.98664
C     -2.51102   -6.28119   10.12579
C     -3.22765   -4.19475    8.38893
C      2.86899   -1.03904    1.79992
C     -3.82509   -5.74259   10.20963
C     -4.18450   -4.67545    9.32784
C      4.57361    0.71730   -0.90706
C      3.41332    0.48640   -0.06826
C      5.56782   -0.21116   -0.48962
C      3.75190   -0.56689    0.81861
C      1.60755   -0.43574    1.86918
C     -1.59763   -5.80580    9.21649
C     -1.96311   -4.74436    8.32075
C      7.22189   -2.12459    3.45666
C      0.73465   -5.58456    9.58592
C      6.49562   -1.17229    2.52095
C     -0.29477   -2.04016    4.57410
C     -0.06842   -3.13325    5.62383
C      5.81106   -1.91008    1.36191
C      0.93303   -1.83968    3.69813
C     -1.29911   -3.34363    6.49318
N      5.04356   -1.00354    0.53458
O      7.17254   -3.33018    3.37728
O      7.95456   -1.53347    4.44545
O     -0.35722   -6.39489    9.12716
O      0.64178   -0.79209    2.77261
O     -0.98892   -4.36775    7.43982
H     -6.77474   -6.04945   11.91652
H     -7.40396   -4.18803   10.37996
H      6.36060    2.26798   -3.34655
H      8.07646    0.65163   -2.58491
H     -4.50613   -7.03660   11.80795
H     -5.77032   -3.31776    8.74164
H      4.11418    2.32548   -2.28294
H      1.84753    1.87214   -0.64232
H      7.59524   -0.95424   -0.75696
H      0.25442    1.03851    1.08574
H     -2.20876   -7.09311   10.78211
H     -3.52231   -3.39352    7.71996
H      3.15209   -1.84374    2.46730
H      1.63228   -6.19637    9.47659
H      0.59734   -5.32070   10.64228
H      0.83406   -4.67503    8.98623
H      7.19719   -0.42776    2.12567
H      5.74427   -0.61782    3.09713
H     -1.14548   -2.29652    3.93213
H     -0.53742   -1.08808    5.06031
H      0.77725   -2.87000    6.27021
H      0.18463   -4.08367    5.14013
H      5.15468   -2.69013    1.75105
H      6.55513   -2.41812    0.74528
H      1.80360   -1.56550    4.31079
H      1.17502   -2.76359    3.15490
H     -2.15908   -3.65114    5.88299
H     -1.56715   -2.41724    7.01973
H      7.89722   -0.56542    4.37005
