26   
Generated by ForceBalance from scan.xyz: Frame 1 of 11
C        2.8129054111    2.9945851999   -4.4167160017
C        0.7611991431    3.5824085690   -5.3507470359
C        0.4729629453    0.5330546556   -0.7141361886
C        0.0233852471    1.9994546855   -0.7780654905
C        0.3414891102   -0.1468449136   -2.0841805535
C        0.7899579392    2.7761811835   -1.8578824227
C        1.1099814289    0.6213141930   -3.1688620300
C        0.6593645540    2.0884658606   -3.2272051595
N        2.7915049323    3.2741102658   -5.8278933371
N        1.8616164491    4.4813035998   -5.5686900916
N        1.3726860429    2.8314372849   -4.2641851395
O        3.7217170178    2.8055957622   -3.6525582883
O       -0.3545220729    3.5524522294   -5.7968119038
H       -0.1140627688   -0.0101627490    0.0354063705
H        1.5209234963    0.4898450252   -0.3878759934
H       -1.0527576093    2.0389374493   -0.9968378987
H        0.1625013242    2.4848586032    0.1945254917
H        0.7048470579   -1.1795229598   -2.0352981456
H       -0.7204275898   -0.2014616686   -2.3611922932
H        0.4201969075    3.8048916669   -1.9329703054
H        1.8520227294    2.8331915437   -1.5930914385
H        2.1843726988    0.5881696996   -2.9513653458
H        0.9627029712    0.1588506220   -4.1510893464
H       -0.3918223626    2.1185955849   -3.5375181613
H        3.6983560917    3.7052418486   -6.0531640443
H        1.7245865518    4.8935283288   -6.5015254027
26   
Generated by ForceBalance from scan.xyz: Frame 2 of 11
C        2.7785322904    3.0024748109   -4.3972431507
C        0.7453003958    3.5660342715   -5.3196612739
C        0.4763395021    0.5347733960   -0.7253462583
C        0.0399221712    2.0057025090   -0.7759484544
C        0.3309540957   -0.1340437145   -2.0995113297
C        0.8096784239    2.7833590250   -1.8529200072
C        1.1019212747    0.6338340922   -3.1827979962
C        0.6609354160    2.1036885471   -3.2233522588
N        2.8731719932    3.3965166530   -5.7722813166
N        1.8041439269    4.4453770113   -5.7149265203
N        1.3727754897    2.8509932802   -4.2648844787
O        3.6654533687    2.7301748685   -3.6221987899
O       -0.4083772841    3.5466078981   -5.6785323933
H       -0.1119254970   -0.0083704371    0.0232019931
H        1.5255073704    0.4794974981   -0.4051492726
H       -1.0367134600    2.0572972294   -0.9892449126
H        0.1887470958    2.4826614709    0.1992645363
H        0.6856845639   -1.1700100189   -2.0600995497
H       -0.7328103846   -0.1771289460   -2.3711101444
H        0.4474944342    3.8154440225   -1.9189441039
H        1.8730264313    2.8271603282   -1.5931912889
H        2.1765407787    0.5890633525   -2.9728325326
H        0.9420322857    0.1802778613   -4.1673098333
H       -0.3907462442    2.1472132654   -3.5267369684
H        3.7609403314    3.8977041956   -5.8766832078
H        1.6187201632    4.7206605859   -6.6844673051
26   
Generated by ForceBalance from scan.xyz: Frame 3 of 11
C        2.7631441249    2.9888824869   -4.3937248751
C        0.7236292218    3.5402106297   -5.3122380266
C        0.4732224167    0.5279797688   -0.7348617974
C        0.0597273931    2.0058846517   -0.7759110363
C        0.3065130453   -0.1329469210   -2.1104807509
C        0.8333935388    2.7757764319   -1.8557842571
C        1.0821872536    0.6264293184   -3.1965184287
C        0.6607525165    2.1020467755   -3.2256484954
N        2.9220128818    3.4930757548   -5.7106510295
N        1.7515872156    4.3572210497   -5.8448756325
N        1.3706953319    2.8440921666   -4.2756949880
O        3.6382616509    2.6580982252   -3.6206267850
O       -0.4536766345    3.5406116824   -5.6045297416
H       -0.1178614395   -0.0088229840    0.0160480387
H        1.5238291755    0.4547768940   -0.4232689440
H       -1.0175808434    2.0756254971   -0.9802272549
H        0.2242873269    2.4763094736    0.1999193981
H        0.6448626488   -1.1745842990   -2.0776978018
H       -0.7598245159   -0.1576322502   -2.3741306814
H        0.4849121324    3.8130577570   -1.9153199505
H        1.8990059369    2.8019826898   -1.6043421066
H        2.1572330308    0.5646191905   -2.9961142833
H        0.9058248153    0.1793615331   -4.1813259011
H       -0.3926003640    2.1617854559   -3.5182821222
H        3.7693788472    4.0618578485   -5.7488056490
H        1.5663265601    4.5288294783   -6.8343806673
26   
Generated by ForceBalance from scan.xyz: Frame 4 of 11
C        2.7489539579    3.0483145304   -4.3572346125
C        0.7149084642    3.5544818296   -5.2912597517
C        0.4846291550    0.5296383524   -0.7370831925
C        0.0779689445    2.0099620981   -0.7534225748
C        0.3047783660   -0.1102248438   -2.1209634615
C        0.8488771996    2.7923249450   -1.8264104674
C        1.0769468773    0.6611600040   -3.2010457443
C        0.6619915845    2.1388919836   -3.2035568585
N        2.9554588103    3.6440069414   -5.6222413275
N        1.7167923091    4.3137798038   -5.9331763399
N        1.3678755647    2.8910794117   -4.2514102353
O        3.6159687521    2.7061340769   -3.5753433417
O       -0.4699738203    3.5398697551   -5.5638819629
H       -0.1036970010   -0.0153161922    0.0100967395
H        1.5370751319    0.4469033964   -0.4343387395
H       -1.0002976791    2.0878916770   -0.9494536280
H        0.2514035523    2.4649250613    0.2281518060
H        0.6382444649   -1.1538217801   -2.1060413898
H       -0.7634227184   -0.1256461623   -2.3775386924
H        0.5038758305    3.8317148976   -1.8682849048
H        1.9158812591    2.8097814464   -1.5816788792
H        2.1530312437    0.5913025227   -3.0101180530
H        0.8897081159    0.2301008707   -4.1910443743
H       -0.3924666092    2.2088929935   -3.4884903726
H        3.7286934122    4.3066616693   -5.5826967294
H        1.5582731741    4.3414838178   -6.9394581589
26   
Generated by ForceBalance from scan.xyz: Frame 5 of 11
C        2.7793461382    3.0038579050   -4.3656764303
C        0.7548950628    3.5295319173   -5.3074766560
C        0.4784515851    0.5194322743   -0.7523191561
C        0.0983271986    2.0067821147   -0.7665136783
C        0.2846043025   -0.1156391395   -2.1365272291
C        0.8819533180    2.7761238577   -1.8397100136
C        1.0693568228    0.6423357916   -3.2170585292
C        0.6812668091    2.1275276164   -3.2168534625
N        3.0172675518    3.6890798199   -5.5751099135
N        1.7623073097    4.1938229028   -6.0327810881
N        1.3994439414    2.8667617811   -4.2662577777
O        3.6339606325    2.6309481272   -3.5824659477
O       -0.4348992067    3.5356513571   -5.5632384995
H       -0.1181892699   -0.0157017082   -0.0046392524
H        1.5298060656    0.4175551765   -0.4516638674
H       -0.9786111854    2.1041832641   -0.9611067829
H        0.2811294035    2.4575533981    0.2152864124
H        0.5991683207   -1.1651088662   -2.1231727490
H       -0.7840941765   -0.1112901301   -2.3913753269
H        0.5550373455    3.8214705918   -1.8800638557
H        1.9493492225    2.7741419100   -1.5962861118
H        2.1441147224    0.5524530303   -3.0283135713
H        0.8718246268    0.2159250656   -4.2071459339
H       -0.3717786672    2.2170890880   -3.5009993390
H        3.7186873260    4.4189543993   -5.4730406662
H        1.6442980499    4.0981228299   -7.0387447024
26   
Generated by ForceBalance from scan.xyz: Frame 6 of 11
C        2.7759488007    3.0660312441   -4.3025505250
C        0.7742571994    3.4025253943   -5.3770378352
C        0.4607362208    0.5226175283   -0.7395780557
C        0.0409220141    1.9984409199   -0.7908716585
C        0.3179639116   -0.1424692442   -2.1158426369
C        0.8300987664    2.7699165904   -1.8585023853
C        1.1079487013    0.6175398962   -3.1910494109
C        0.6809538802    2.0917966488   -3.2279300473
N        3.0239284402    3.8104439031   -5.4745690881
N        1.7872598203    4.0176907622   -6.1373321332
N        1.4040810401    2.8344662147   -4.2710679807
O        3.6234426893    2.6553740538   -3.5312449161
O       -0.4188129403    3.4357093590   -5.6128189606
H       -0.1393367651   -0.0148471985    0.0036658895
H        1.5067886442    0.4552944185   -0.4119203040
H       -1.0330159945    2.0627174413   -1.0135634480
H        0.1871735403    2.4717495078    0.1864314543
H        0.6601879534   -1.1825592557   -2.0752453786
H       -0.7440032560   -0.1721159834   -2.3960096315
H        0.4764448612    3.8050995382   -1.9259214984
H        1.8903267779    2.8011316674   -1.5874280169
H        2.1800410093    0.5613379862   -2.9762674629
H        0.9451679346    0.1682785453   -4.1774859282
H       -0.3671557452    2.1496597036   -3.5374429282
H        3.7485623152    3.4172369806   -6.0687676907
H        1.6016098917    4.9885827316   -6.3726671572
26   
Generated by ForceBalance from scan.xyz: Frame 7 of 11
C        2.7719280927    3.0738612803   -4.3106695765
C        0.7688319339    3.4103441962   -5.3763622191
C        0.4708702461    0.5217766449   -0.7446007074
C        0.0628513260    2.0012571047   -0.7844753374
C        0.3107753384   -0.1348641081   -2.1230497895
C        0.8485244714    2.7718517377   -1.8553634132
C        1.0974757963    0.6243402229   -3.2011957025
C        0.6813698927    2.1020756739   -3.2264350694
N        2.9967230009    3.9098632701   -5.4234685396
N        1.7925012444    3.9310273815   -6.1907121487
N        1.4013298065    2.8429269347   -4.2734321054
O        3.6304261059    2.6468292634   -3.5598796308
O       -0.4255614181    3.4656728954   -5.6035278138
H       -0.1271972489   -0.0146972826    0.0009769401
H        1.5191116154    0.4440999966   -0.4263718580
H       -1.0125003102    2.0755240485   -0.9970591318
H        0.2217055464    2.4682338198    0.1938987503
H        0.6449789620   -1.1778499508   -2.0908910364
H       -0.7537825898   -0.1545107409   -2.3941143629
H        0.5028165240    3.8101840561   -1.9142755932
H        1.9114965938    2.7930947493   -1.5937713886
H        2.1708955184    0.5592239611   -2.9959205569
H        0.9232728182    0.1816104454   -4.1885653070
H       -0.3688958644    2.1697447384   -3.5265033526
H        3.8033755060    3.6162706952   -5.9696008099
H        1.5713091002    4.8574856335   -6.5481788535
26   
Generated by ForceBalance from scan.xyz: Frame 8 of 11
C        2.7507557262    3.0481147079   -4.3451796218
C        0.7373226451    3.3818385372   -5.3942317643
C        0.4786298595    0.5054720982   -0.7464450480
C        0.0839708541    1.9887283047   -0.7794398584
C        0.2920509765   -0.1488167329   -2.1227093964
C        0.8602066940    2.7525025659   -1.8620109241
C        1.0689665495    0.6039363960   -3.2124037348
C        0.6661230968    2.0857764190   -3.2308478711
N        2.9270821488    3.9670271658   -5.4045500226
N        1.7778005856    3.7885925285   -6.2569319033
N        1.3769337996    2.8187074824   -4.2890168867
O        3.6253936696    2.6130112600   -3.6200013454
O       -0.4565405933    3.4607178354   -5.6110176104
H       -0.1132989865   -0.0259321231    0.0076177940
H        1.5306911406    0.4177470614   -0.4437733198
H       -0.9937608350    2.0731533568   -0.9756336705
H        0.2618282122    2.4535832900    0.1966724845
H        0.6174272344   -1.1947502714   -2.0960706103
H       -0.7765869276   -0.1588903950   -2.3777933694
H        0.5241644026    3.7942560030   -1.9149783509
H        1.9273587114    2.7633115830   -1.6164818821
H        2.1448125799    0.5291635854   -3.0234125773
H        0.8765128175    0.1634449897   -4.1973098617
H       -0.3882300287    2.1625506247   -3.5143967195
H        3.7898731262    3.7684688374   -5.9092410979
H        1.5344554571    4.6578476623   -6.7298497363
26   
Generated by ForceBalance from scan.xyz: Frame 9 of 11
C        2.7515222655    3.1013368646   -4.3116905336
C        0.7390780151    3.4065393712   -5.3906840771
C        0.4685909432    0.5022727100   -0.7451848924
C        0.0840844367    1.9885345518   -0.7563299421
C        0.2720664431   -0.1317868539   -2.1294584457
C        0.8604628209    2.7618195049   -1.8320000052
C        1.0485573250    0.6313156224   -3.2121199584
C        0.6568596947    2.1168494861   -3.2098465135
N        2.8622862243    4.0993734709   -5.3143897026
N        1.8223775301    3.6946447617   -6.2574976570
N        1.3692119906    2.8555361060   -4.2606288584
O        3.6355668011    2.6686836967   -3.6016143550
O       -0.4472408896    3.5003572621   -5.6259086194
H       -0.1238828916   -0.0353849759    0.0040160565
H        1.5212447755    0.4031421096   -0.4480039153
H       -0.9939500528    2.0828214788   -0.9464561472
H        0.2691702679    2.4386920958    0.2253344147
H        0.5906741038   -1.1801174901   -2.1186588269
H       -0.7977055244   -0.1314923246   -2.3800376990
H        0.5328062599    3.8068602636   -1.8687399653
H        1.9288062962    2.7614361850   -1.5904411190
H        2.1249939328    0.5472703977   -3.0286560070
H        0.8504431719    0.2055576256   -4.2022803895
H       -0.3987424526    2.2041077041   -3.4870585255
H        3.7762869671    4.0197689144   -5.7630146071
H        1.5753770743    4.4866307612   -6.8530153232
26   
Generated by ForceBalance from scan.xyz: Frame 10 of 11
C        2.7684114152    3.1009979584   -4.3239947138
C        0.7636020882    3.4056500999   -5.4150466506
C        0.4734904978    0.4913677902   -0.7469033047
C        0.1090116421    1.9826543846   -0.7483918426
C        0.2525065001   -0.1345372408   -2.1311224375
C        0.8822621510    2.7492271826   -1.8309751587
C        1.0265636018    0.6221356080   -3.2198943834
C        0.6575319612    2.1140754079   -3.2103466333
N        2.7946872599    4.1877210633   -5.2584946041
N        1.8987962823    3.5489395684   -6.2761144425
N        1.3733150915    2.8431512951   -4.2620453488
O        3.6727486345    2.6440263610   -3.6645851056
O       -0.4083200483    3.5709875852   -5.6587661877
H       -0.1173585731   -0.0411044426    0.0072557946
H        1.5281013907    0.3768621955   -0.4622654047
H       -0.9698732666    2.0920905325   -0.9251618425
H        0.3116605087    2.4268769175    0.2325326084
H        0.5564787549   -1.1872808798   -2.1278927062
H       -0.8200457898   -0.1185446387   -2.3691922217
H        0.5699413300    3.7990555114   -1.8602529134
H        1.9535197088    2.7331211514   -1.6006567275
H        2.1040681099    0.5230162737   -3.0488863114
H        0.8136123998    0.2023726944   -4.2094326400
H       -0.3997431422    2.2179644896   -3.4774550636
H        3.7327036160    4.2014730136   -5.6709954735
H        1.6685101043    4.2801109542   -6.9562090663
26   
Generated by ForceBalance from scan.xyz: Frame 11 of 11
C        2.7993549397    3.1267752920   -4.3220000605
C        0.7788303523    3.4290626313   -5.4416222053
C        0.4709254234    0.4814976443   -0.7408827680
C        0.1189215239    1.9756628664   -0.7293088362
C        0.2350975928   -0.1324032181   -2.1279830368
C        0.8896448793    2.7430434583   -1.8129576450
C        1.0056160932    0.6267819461   -3.2174237619
C        0.6534099210    2.1236594384   -3.1984365207
N        2.6914027523    4.2766856867   -5.1799417551
N        1.9738524249    3.4107868263   -6.2403844961
N        1.3704296163    2.8506694027   -4.2441419997
O        3.7363625416    2.6483042067   -3.7400432957
O       -0.3650958496    3.6825185067   -5.7097594827
H       -0.1186184324   -0.0516775843    0.0138758994
H        1.5266488739    0.3563635189   -0.4646153528
H       -0.9603072070    2.0950102137   -0.8978530760
H        0.3314119344    2.4112214699    0.2535334898
H        0.5304903379   -1.1876782441   -2.1344016892
H       -0.8392247942   -0.1063949359   -2.3574579652
H        0.5886681473    3.7963157821   -1.8320463241
H        1.9630469374    2.7153102971   -1.5898890603
H        2.0842338416    0.5174503795   -3.0562523600
H        0.7838758592    0.2155053435   -4.2085289697
H       -0.4059506742    2.2394066041   -3.4564170711
H        3.6271422556    4.4308133299   -5.5794875566
H        1.8144361761    4.0591768209   -7.0233687821
