28   

C       -0.9864297186    0.3276401664    0.5217259586
C       -2.0409327690   -0.5895526232    0.6208315543
C       -1.7878433457    1.4789603648    2.5031846131
C       -3.9210815156    0.3917739006    3.5397769427
C       -2.8339441979    0.5554033711    2.5899834170
C       -0.8416022405    1.3739986381    1.4579445933
C       -2.9511019055   -0.4560455321    1.6616711935
C       -4.6570454247   -0.7109892841    3.1426344409
C       -5.7902527125   -1.3931287484    3.7610273493
C        1.2176044781    2.2844757475    2.5629087126
C       -0.2032471363    3.7696739553    1.0968236146
C        0.3123454654    2.3470650014    1.3292565405
N       -4.0551448654   -1.2375640330    1.9771125900
O       -6.1773432009   -2.5078616311    3.4361591648
O       -6.3724311730   -0.7090118736    4.7738579192
H       -0.2745521391    0.2218144980   -0.2887730006
H       -2.1447434861   -1.3924848835   -0.0980148100
H       -1.7103710447    2.2651781948    3.2438487937
H       -4.1130632300    0.9999327405    4.4155261245
H        0.6734032448    2.5783883019    3.4654248338
H        2.0726789492    2.9562434924    2.4385680057
H        1.5962976436    1.2663582745    2.6984297722
H       -0.8001171205    4.1145144251    1.9465125304
H       -0.8254263286    3.7997452642    0.1966671423
H        0.6363183273    4.4580736408    0.9587484501
H        0.9162814899    2.0657638140    0.4599788935
H       -4.3670045906   -2.0780272973    1.4945215227
H       -7.0858085321   -1.2860256846    5.0903292737
28   

C       -0.7191879262    0.1396846421    0.7973109707
C       -1.7288335880   -0.8220886071    0.9347585088
C       -1.8743695205    1.5911754549    2.3631896141
C       -4.0728014776    0.5522982142    3.3072384975
C       -2.8724264177    0.6206338634    2.4923672915
C       -0.7737934976    1.3587289138    1.5067744529
C       -2.7943232657   -0.5599110006    1.7866869470
C       -4.6811426212   -0.6639054536    3.0512502774
C       -5.8041141019   -1.3321243718    3.7081728754
C        1.0248091715    2.6519739934    2.6881137358
C       -0.1997041420    3.6673086393    0.7277086032
C        0.3382448895    2.3751301402    1.3471046409
N       -3.8866234435   -1.3556475769    2.1081906680
O       -5.9340257219   -2.5466154377    3.7764410529
O       -6.6703810908   -0.4929076704    4.3225498733
H        0.1148332804   -0.0670290140    0.1365862830
H       -1.6780520273   -1.7580889620    0.3929814680
H       -1.9509687203    2.5107381182    2.9299749842
H       -4.4115950579    1.2917206860    4.0227858397
H        0.3239160870    3.0859007238    3.4074568066
H        1.8561629937    3.3502643050    2.5496918880
H        1.4227510137    1.7211807274    3.1047633256
H       -0.9495217077    4.1301467450    1.3763749203
H       -0.6598158580    3.4537182418   -0.2423242907
H        0.6158691373    4.3805501418    0.5729961127
H        1.0935895767    1.9681345956    0.6664270419
H       -4.0548708055   -2.3101678116    1.7973814509
H       -7.3325028349   -1.0709992403    4.7340783581
28   

C       -0.7446464384    0.1688256053    0.7513399429
C       -1.7605338188   -0.7880614045    0.8772784362
C       -1.8844600380    1.6035332315    2.3435003263
C       -4.0776410552    0.5582784488    3.2905572827
C       -2.8882231080    0.6374901062    2.4614870953
C       -0.7881765723    1.3768531873    1.4801660663
C       -2.8211283194   -0.5322216230    1.7373443179
C       -4.6936213610   -0.6508097569    3.0216005853
C       -5.7700641126   -1.3410629969    3.7408592179
C        1.0184158216    2.6416295244    2.6820884229
C       -0.1936587386    3.6894132795    0.7311626067
C        0.3327194595    2.3859259341    1.3362169668
N       -3.9123142207   -1.3301805166    2.0580612716
O       -5.7641513957   -2.5341678982    4.0049147043
O       -6.7434699105   -0.5210684328    4.2005134867
H        0.0865229562   -0.0338982553    0.0858010705
H       -1.7166019075   -1.7167828416    0.3225580175
H       -1.9516063250    2.5134673223    2.9267744165
H       -4.3950394214    1.2790294907    4.0342877166
H        0.3197541258    3.0733808714    3.4048874545
H        1.8559376070    3.3344459570    2.5536117282
H        1.4076453099    1.7029057248    3.0890782347
H       -0.9420684721    4.1495730381    1.3833672463
H       -0.6524065530    3.4909863448   -0.2427168984
H        0.6276362316    4.3984026770    0.5876071110
H        1.0867079224    1.9810407721    0.6527834795
H       -4.0698405768   -2.2867575998    1.7493067534
H       -7.3531898332   -1.1000016218    4.6852107293
28   

C       -0.7784974241    0.1823198220    0.7134507571
C       -1.8011987713   -0.7682060114    0.8332087863
C       -1.8947883165    1.6027745430    2.3345647483
C       -4.0827710294    0.5567259811    3.2907124850
C       -2.9049556934    0.6427396720    2.4465599716
C       -0.8067719290    1.3799737641    1.4599457890
C       -2.8531934406   -0.5166578344    1.7051710090
C       -4.7088442116   -0.6439031980    3.0121550669
C       -5.7521873969   -1.3441299480    3.7827636174
C        1.0149038583    2.6165042077    2.6703079311
C       -0.1953975167    3.6952336134    0.7353316224
C        0.3223815874    2.3810086491    1.3240827433
N       -3.9450194623   -1.3135258548    2.0273435725
O       -5.6274556102   -2.4655034200    4.2472446862
O       -6.8406115592   -0.5867190865    4.0502713254
H        0.0466344867   -0.0177762739    0.0396547314
H       -1.7677728901   -1.6897631121    0.2659827886
H       -1.9495241525    2.5038929739    2.9326225349
H       -4.3785127287    1.2627175894    4.0570341754
H        0.3226875454    3.0466527749    3.4002160482
H        1.8578899258    3.3034879034    2.5462341037
H        1.3975565680    1.6702836905    3.0660205680
H       -0.9382931153    4.1536813631    1.3950184440
H       -0.6585854251    3.5112941182   -0.2392827770
H        0.6310206823    4.3993354092    0.5972549338
H        1.0708482613    1.9774667211    0.6338208856
H       -4.1026167747   -2.2667121240    1.7098874611
H       -7.4119149235   -1.1492041332    4.5970272006
28   

C       -0.7908520564    0.1986813160    0.6994319508
C       -1.8157936005   -0.7490474873    0.8221668291
C       -1.8781955976    1.6038990047    2.3531326511
C       -4.0580945481    0.5560275521    3.3260618367
C       -2.8907028831    0.6466181589    2.4679682321
C       -0.8037326809    1.3874773413    1.4603308847
C       -2.8543681093   -0.5038134038    1.7119122443
C       -4.6915295561   -0.6365995712    3.0422404410
C       -5.7436563493   -1.3296083416    3.8250237614
C        1.0375590964    2.6073542908    2.6586754862
C       -0.1944527090    3.7071939396    0.7494598286
C        0.3269241889    2.3861506867    1.3194877489
N       -3.9462225166   -1.2990287811    2.0382012876
O       -5.5533278557   -2.3220947437    4.5044438432
O       -6.9415046265   -0.7022724502    3.8115659023
H        0.0237968145    0.0035384139    0.0115670750
H       -1.7941948966   -1.6635851761    0.2431644243
H       -1.9209521646    2.4982040742    2.9622778805
H       -4.3407739595    1.2558951949    4.1027146919
H        0.3563114051    3.0331265882    3.4013466947
H        1.8810638384    3.2928180990    2.5297962578
H        1.4222682655    1.6564306397    3.0408773421
H       -0.9276616197    4.1615047616    1.4227140060
H       -0.6704837370    3.5335522283   -0.2208513357
H        0.6321457780    4.4102854083    0.6073736549
H        1.0652141085    1.9867476625    0.6159832948
H       -4.1178131077   -2.2412807664    1.6977917315
H       -7.5114848253   -1.2319630126    4.3913093607
28   

C       -0.7409148199    0.1692352581    0.8096630388
C       -1.7429444994   -0.7940616716    0.9852912674
C       -1.7922544222    1.5820404506    2.4807078648
C       -3.9463953113    0.5322985146    3.5148979507
C       -2.7843276115    0.6106045609    2.6464399306
C       -0.7479933429    1.3700432754    1.5513266351
C       -2.7529423247   -0.5516273456    1.9078596034
C       -4.5678453863   -0.6674623433    3.2654296198
C       -5.7607136132   -1.2733499419    3.9280683613
C        1.1326188085    2.6252952986    2.6392260477
C       -0.2263197352    3.7030393662    0.8045557780
C        0.3512400663    2.3915452765    1.3430216999
N       -3.8345564621   -1.3468127759    2.2642341755
O       -5.7207123935   -2.0011817551    4.8993623941
O       -6.9343356065   -0.9422548761    3.3438258157
H        0.0486760620   -0.0208059538    0.0917926447
H       -1.7300742737   -1.7143330239    0.4151900873
H       -1.8323441302    2.4887944266    3.0713638415
H       -4.2577465662    1.2717181737    4.2423084629
H        0.4853202915    3.0345605097    3.4205894405
H        1.9528343971    3.3285135119    2.4642135572
H        1.5580449961    1.6817038490    2.9955539615
H       -0.9255037444    4.1466021905    1.5197865345
H       -0.7562327371    3.5203443930   -0.1357280361
H        0.5781385002    4.4200109512    0.6131514755
H        1.0545510289    2.0063917830    0.5970051890
H       -4.0457821985   -2.2676695034    1.8904840818
H       -7.6149758452   -1.3888960092    3.8716877934
28   

C       -0.7091463954    0.0989690272    0.9149754994
C       -1.6958804537   -0.8700018187    1.1400887446
C       -1.7279250335    1.5385118414    2.5831314686
C       -3.8724605688    0.5156319156    3.6605215502
C       -2.7064832260    0.5626551204    2.7957477911
C       -0.7081078308    1.3161694713    1.6295459217
C       -2.6829370833   -0.6164537217    2.0843069882
C       -4.4942707223   -0.6959417128    3.4531348401
C       -5.8127149268   -1.1594621454    3.9537379226
C        1.2090988230    2.5936730016    2.6136303756
C       -0.2484027526    3.6544946233    0.8461498909
C        0.3667008928    2.3490495304    1.3590354973
N       -3.7652998414   -1.3995188214    2.4650255052
O       -6.0629183745   -1.5071615922    5.0908484677
O       -6.7349390023   -1.2824813494    2.9707022214
H        0.0591577090   -0.0972747786    0.1759974940
H       -1.6940384821   -1.7993872474    0.5848302256
H       -1.7656604717    2.4611985495    3.1487708984
H       -4.2172292493    1.3032087743    4.3192795899
H        0.5959952043    2.9960773579    3.4256173026
H        2.0114723583    3.3058380600    2.3971890245
H        1.6620961714    1.6552377500    2.9489154181
H       -0.9117670641    4.0976547540    1.5948986648
H       -0.8256537108    3.4644399244   -0.0643417913
H        0.5397138954    4.3762358683    0.6097658326
H        1.0343231513    1.9680947365    0.5788642846
H       -4.0319225721   -2.2903775686    2.0555704514
H       -7.5319527367   -1.6131109139    3.4147403284
28   

C       -0.7026102739    0.1240979765    0.9331272681
C       -1.6959435682   -0.8326648573    1.1813552574
C       -1.6877714112    1.5932650506    2.5953816093
C       -3.8328451403    0.6090382497    3.7041335985
C       -2.6733349239    0.6298782405    2.8303063546
C       -0.6811924684    1.3495802168    1.6332221611
C       -2.6694493529   -0.5585564881    2.1339338593
C       -4.4701540256   -0.6024412540    3.5213735214
C       -5.7970469325   -1.0163893167    4.0153400257
C        1.2703362736    2.6043373449    2.5743327143
C       -0.2087933662    3.6824375159    0.8357599156
C        0.3995755334    2.3693142747    1.3375249430
N       -3.7574185972   -1.3242937391    2.5344263716
O       -6.1430820753   -1.0740225870    5.1799780831
O       -6.6002784637   -1.4865214448    3.0304708924
H        0.0548185686   -0.0881356433    0.1873816105
H       -1.7100318310   -1.7683092744    0.6368841441
H       -1.7105677364    2.5230719883    3.1500832942
H       -4.1683921118    1.4122805438    4.3488612457
H        0.6783459788    3.0136866772    3.3984692304
H        2.0763459640    3.3071038223    2.3413367077
H        1.7190838400    1.6607117634    2.9006487709
H       -0.8491785530    4.1364106129    1.5978918541
H       -0.8084069176    3.4990814058   -0.0615404561
H        0.5838620916    4.3928433659    0.5809022317
H        1.0457774790    1.9791259358    0.5440065389
H       -4.0564489177   -2.2052888098    2.1250290541
H       -7.4164849789   -1.7541962007    3.4825302632
28   

C       -0.7185409344    0.1453893778    0.9037236240
C       -1.7220262224   -0.8037963579    1.1403022153
C       -1.6883403534    1.6049374980    2.5833892360
C       -3.8410039543    0.6292100642    3.6840221314
C       -2.6838807439    0.6492302122    2.8068730824
C       -0.6843133273    1.3621707181    1.6184159473
C       -2.6927691902   -0.5310189014    2.0960604095
C       -4.4920259588   -0.5742330348    3.4858596909
C       -5.8049862226   -0.9857437453    3.9977311689
C        1.2761928975    2.5902931675    2.5775805321
C       -0.1866722012    3.6965198199    0.8430126357
C        0.4076511666    2.3736492726    1.3357579538
N       -3.7876595850   -1.2907528783    2.4894529862
O       -6.2134288495   -0.8290928908    5.1335999578
O       -6.5195892984   -1.7063904587    3.0979965260
H        0.0369964715   -0.0660218939    0.1558362075
H       -1.7456067558   -1.7329493365    0.5851409882
H       -1.7011331661    2.5279569400    3.1496614410
H       -4.1645068575    1.4240962182    4.3453086133
H        0.6854247104    2.9990390198    3.4028875961
H        2.0898715842    3.2869518359    2.3530276500
H        1.7145372391    1.6397939325    2.8980196192
H       -0.8260060903    4.1495611769    1.6066014868
H       -0.7843842281    3.5263555003   -0.0581448489
H        0.6133933472    4.4018570443    0.5974154392
H        1.0531137230    1.9839585925    0.5414011290
H       -4.0987247801   -2.1664719946    2.0766522994
H       -7.3379582836   -1.9412139533    3.5645936356
28   

C       -0.7403441594    0.1702167717    0.8629804245
C       -1.7560268842   -0.7710038773    1.0783441329
C       -1.7069700239    1.6167234875    2.5558134061
C       -3.8732862278    0.6455670734    3.6338154792
C       -2.7145165285    0.6690205673    2.7584783008
C       -0.6981529712    1.3762701312    1.5952445602
C       -2.7310555649   -0.5010320270    2.0304766563
C       -4.5359977470   -0.5478606947    3.4122954464
C       -5.8264074028   -0.9786581975    3.9521444807
C        1.2661744308    2.5700638127    2.5905806390
C       -0.1656484922    3.7135186230    0.8542512176
C        0.4085127482    2.3782530786    1.3370400277
N       -3.8337506654   -1.2567744230    2.4094777760
O       -6.2991767223   -0.6495571103    5.0249264598
O       -6.4499826930   -1.8964092590    3.1706969660
H        0.0191187595   -0.0394103468    0.1185782445
H       -1.7847894562   -1.6925703487    0.5109124644
H       -1.7130857800    2.5310414501    3.1361598711
H       -4.1854096221    1.4266874496    4.3168186394
H        0.6715115004    2.9760153463    3.4144631362
H        2.0902138779    3.2597717972    2.3829663759
H        1.6901133095    1.6108398580    2.9043434146
H       -0.8083554554    4.1641375535    1.6164518733
H       -0.7552780512    3.5609669296   -0.0553403603
H        0.6448023280    4.4128133791    0.6260711467
H        1.0581487394    1.9907768894    0.5450079460
H       -4.1430898217   -2.1354241953    2.0008023384
H       -7.2667917418   -2.1120007083    3.6494192772
28   

C       -0.7424715808    0.2164513951    0.8118373181
C       -1.7697011220   -0.7160278862    1.0097457542
C       -1.6911118718    1.6429873012    2.5316588430
C       -3.8616785239    0.6727133667    3.6019861071
C       -2.7097389390    0.7037897250    2.7175973534
C       -0.6855633327    1.4081559374    1.5662883219
C       -2.7413317247   -0.4518964944    1.9669429463
C       -4.5400916984   -0.5068694271    3.3555514157
C       -5.7976079818   -0.9650496595    3.9413779777
C        1.2833788951    2.5726329383    2.5907565980
C       -0.1223273207    3.7447707834    0.8522115619
C        0.4346225682    2.4000103200    1.3281675762
N       -3.8492574844   -1.2042864303    2.3372977756
O       -6.3343521811   -0.5044209199    4.9328328499
O       -6.3297478247   -2.0337482477    3.2951009115
H        0.0149211011    0.0109386781    0.0641889198
H       -1.8089696190   -1.6271691429    0.4263295982
H       -1.6851013012    2.5456400931    3.1300025039
H       -4.1531784644    1.4343716321    4.3155370891
H        0.6865201715    2.9792776611    3.4126788927
H        2.1168217434    3.2546296387    2.3955365800
H        1.6939351347    1.6064322256    2.9008726402
H       -0.7685495285    4.1938254166    1.6123990197
H       -0.7044422391    3.6058818582   -0.0643866152
H        0.6966402542    4.4386374142    0.6383694950
H        1.0875568846    2.0126968201    0.5387754403
H       -4.1548096492   -2.0879517993    1.9361809078
H       -7.1404128061   -2.2396215675    3.7884554419
28   

C       -0.7819191650    0.2344676903    0.7772702711
C       -1.8239802954   -0.6845613155    0.9601145474
C       -1.7179913316    1.6568754966    2.5073607560
C       -3.9008748495    0.7017331899    3.5659915564
C       -2.7512417727    0.7309735907    2.6785079420
C       -0.7109337035    1.4170243423    1.5448249419
C       -2.7965063046   -0.4160177876    1.9151794882
C       -4.5963085683   -0.4641253137    3.3025064698
C       -5.8215452716   -0.9477713425    3.9326791651
C        1.2683499209    2.5402066106    2.5962839931
C       -0.1047017460    3.7504415494    0.8577558407
C        0.4270732489    2.3927633324    1.3253659875
N       -3.9126727231   -1.1597563093    2.2783024872
O       -6.4421167964   -0.3834280649    4.8158495214
O       -6.2440795653   -2.1388345864    3.4365057706
H       -0.0231857922    0.0249661402    0.0320933854
H       -1.8728188939   -1.5897165344    0.3681660069
H       -1.7004001870    2.5519054201    3.1168279786
H       -4.1728552806    1.4494343654    4.3017117100
H        0.6716408856    2.9489504883    3.4172684781
H        2.1141393910    3.2104903675    2.4139890068
H        1.6609887033    1.5648012825    2.9007555748
H       -0.7502607395    4.2022146001    1.6169037239
H       -0.6811955774    3.6292563557   -0.0648792357
H        0.7267777142    4.4333424564    0.6573573630
H        1.0802635708    2.0023522244    0.5377149939
H       -4.2107457220   -2.0525584565    1.8918953825
H       -7.0526760067   -2.3389843756    3.9356192929
28   

C       -0.7994854363    0.2664474867    0.7399877067
C       -1.8510714633   -0.6446468645    0.9072002545
C       -1.7286483484    1.6759067613    2.4843468843
C       -3.9174267811    0.7216335631    3.5317246204
C       -2.7712552514    0.7577625709    2.6400641278
C       -0.7199110850    1.4382646419    1.5229993757
C       -2.8246555260   -0.3787882088    1.8619311893
C       -4.6235517380   -0.4336223820    3.2503700097
C       -5.8116275527   -0.9527619262    3.9237487212
C        1.2641650901    2.5281348984    2.6014422005
C       -0.0832861062    3.7718174639    0.8664826967
C        0.4304722423    2.4036072522    1.3229364240
N       -3.9442381003   -1.1209386166    2.2176004857
O       -6.5321557814   -0.3307616817    4.6834922571
O       -6.1005629266   -2.2349954610    3.5841056750
H       -0.0392454354    0.0584256862   -0.0040682987
H       -1.9052769256   -1.5426823378    0.3049636953
H       -1.7035773035    2.5618341382    3.1067111739
H       -4.1728504202    1.4516283435    4.2907482844
H        0.6663115636    2.9349627592    3.4225370216
H        2.1187047739    3.1907433860    2.4323282693
H        1.6437589689    1.5452636109    2.8983782081
H       -0.7297900055    4.2218835380    1.6258465124
H       -0.6540741444    3.6668007245   -0.0616586585
H        0.7568707426    4.4479476137    0.6798242030
H        1.0852756887    2.0146174140    0.5359203469
H       -4.2287017986   -2.0231248501    1.8430850076
H       -6.9065120187   -2.4450020129    4.0834087551
28   

C       -0.8611251169    0.2760548770    0.7108652196
C       -1.9256359767   -0.6223065809    0.8646576088
C       -1.7672085760    1.6694183926    2.4800406673
C       -3.9605413343    0.7219725115    3.5239744369
C       -2.8222698585    0.7634207961    2.6227903314
C       -0.7635477264    1.4334931003    1.5129694015
C       -2.8938759382   -0.3582944325    1.8253503193
C       -4.6860709524   -0.4163111872    3.2232415021
C       -5.8386814728   -0.9680592267    3.9368512601
C        1.2287628023    2.4897060067    2.6133014588
C       -0.0916870037    3.7614807529    0.8779494663
C        0.4016750834    2.3840784079    1.3285996918
N       -4.0195377666   -1.0938767099    2.1753907982
O       -6.6632245739   -0.3301812168    4.5660720401
O       -5.9841472415   -2.3054903543    3.7582697086
H       -0.1045273360    0.0689437960   -0.0371500600
H       -1.9928757705   -1.5100984944    0.2487070710
H       -1.7275865760    2.5435878280    3.1180644384
H       -4.1913959414    1.4317550987    4.3094540694
H        0.6317480973    2.9003492972    3.4330716040
H        2.0934183195    3.1414076965    2.4534086308
H        1.5929724455    1.5000621670    2.9069806586
H       -0.7389519093    4.2135318677    1.6355131255
H       -0.6563374137    3.6698212128   -0.0553517410
H        0.7579929693    4.4286979297    0.7027161243
H        1.0568985583    1.9916713382    0.5436293277
H       -4.2971009397   -2.0004197908    1.8067851902
H       -6.7867181845   -2.5335802866    4.2549452921
28   

C       -0.8958457211    0.3007630547    0.6803697477
C       -1.9754827886   -0.5815816489    0.8209282545
C       -1.7866148709    1.6909619895    2.4596803624
C       -3.9938153491    0.7631082391    3.4915516086
C       -2.8566072134    0.8006022660    2.5892884625
C       -0.7827543635    1.4483335875    1.4944985545
C       -2.9432829239   -0.3113778305    1.7803945099
C       -4.7373286877   -0.3591525146    3.1767644894
C       -5.8680229722   -0.9306431795    3.9184847065
C        1.2198025483    2.4620424826    2.6171827385
C       -0.0673851529    3.7691348304    0.8830850420
C        0.3998140626    2.3802877551    1.3260800928
N       -4.0786616250   -1.0355702335    2.1227364244
O       -6.8039965676   -0.3109462785    4.3891141453
O       -5.8585723113   -2.2868307514    3.9318170638
H       -0.1391225714    0.0883042885   -0.0660205462
H       -2.0537522609   -1.4627389499    0.1968120746
H       -1.7346278107    2.5571289311    3.1076345415
H       -4.2058423867    1.4601539178    4.2934055784
H        0.6244138897    2.8766210381    3.4361441677
H        2.0964703046    3.1001339554    2.4681307692
H        1.5652286841    1.4641759803    2.9057014254
H       -0.7126228992    4.2256569198    1.6397018414
H       -0.6267190468    3.6941709793   -0.0548927790
H        0.7944435801    4.4235413399    0.7192757365
H        1.0538888372    1.9830024763    0.5426043846
H       -4.3522581091   -1.9441809183    1.7571936033
H       -6.6627437092   -2.5341125785    4.4163196984
28   

C       -0.9225912600    0.3168751703    0.6560058446
C       -2.0107865881   -0.5566347788    0.7845888766
C       -1.8016127954    1.6928549488    2.4521368467
C       -4.0162755048    0.7696781885    3.4731167595
C       -2.8801345397    0.8110489848    2.5698187243
C       -0.7992607138    1.4528992080    1.4846415486
C       -2.9766703097   -0.2892340224    1.7467841666
C       -4.7699200906   -0.3396920674    3.1436219910
C       -5.8940696780   -0.9315941741    3.8932503350
C        1.2088814316    2.4380249299    2.6240783103
C       -0.0601151376    3.7716123259    0.8966661601
C        0.3928465109    2.3749208933    1.3293653475
N       -4.1176841613   -1.0084236919    2.0803663200
O       -6.9383429236   -0.3764327842    4.1773857444
O       -5.7256693638   -2.2544812527    4.1336326075
H       -0.1671014431    0.1063576848   -0.0921891321
H       -2.0965645359   -1.4293489746    0.1496952934
H       -1.7415015262    2.5498859260    3.1114083082
H       -4.2164478290    1.4540898170    4.2885770398
H        0.6146704026    2.8515150303    3.4444247577
H        2.0921281662    3.0689215478    2.4834500225
H        1.5437839137    1.4345415514    2.9054410526
H       -0.7046049664    4.2270067679    1.6546039731
H       -0.6161132380    3.7097425888   -0.0442506048
H        0.8081283620    4.4197685111    0.7421793237
H        1.0462963796    1.9783675300    0.5449903449
H       -4.3916560515   -1.9114030936    1.7025499074
H       -6.5352053939   -2.5280225513    4.5940966330
28   

C       -0.9246704098    0.2880025610    0.6435266214
C       -1.9992279790   -0.6038844054    0.7579257188
C       -1.8371801255    1.6343519432    2.4456391718
C       -4.0482813151    0.6699306682    3.4391282235
C       -2.9026442872    0.7347723670    2.5487000931
C       -0.8247632692    1.4184650323    1.4827296765
C       -2.9750528285   -0.3601539237    1.7162973993
C       -4.7772240244   -0.4476294908    3.0966810807
C       -5.9288305161   -1.0575531594    3.8076997447
C        1.1706258603    2.4090843437    2.6359565261
C       -0.1198623743    3.7598953641    0.9378422260
C        0.3529025377    2.3610664083    1.3418874383
N       -4.1080077247   -1.0988036866    2.0332432976
O       -7.0651516508   -0.6275459136    3.8273465415
O       -5.6286850194   -2.2533758623    4.3661896372
H       -0.1615121575    0.0962443247   -0.1019327129
H       -2.0672022377   -1.4720217975    0.1146608334
H       -1.7950301282    2.4869547996    3.1119832108
H       -4.2708926506    1.3503253792    4.2519087181
H        0.5715620190    2.7958668018    3.4657693847
H        2.0440948535    3.0559086726    2.5071702360
H        1.5209808388    1.4049408532    2.8953437159
H       -0.7673376840    4.1924913333    1.7064674585
H       -0.6782296388    3.7090234922   -0.0023288156
H        0.7394046879    4.4221237495    0.7931257593
H        1.0097690547    1.9895113431    0.5481706000
H       -4.3739750964   -1.9902533546    1.6246490266
H       -6.4573163748   -2.5562429005    4.7703656957
28   

C       -0.8217964096    0.2400545421    0.7080048890
C       -1.8624539033   -0.6893304023    0.8349895135
C       -1.7635745951    1.5568307753    2.5171150032
C       -3.9601724292    0.5444208695    3.4978403269
C       -2.7970237726    0.6217172899    2.6307389330
C       -0.7540432405    1.3752449815    1.5439516017
C       -2.8371042306   -0.4778498644    1.8021167112
C       -4.6512399243   -0.5942563146    3.1606607866
C       -5.9479945077   -1.1089150896    3.6923408626
C        1.2361652186    2.4194876963    2.6491033741
C       -0.1534842372    3.7538735043    1.0173709328
C        0.3808894908    2.3654031769    1.3805933607
N       -3.9578252565   -1.2386890449    2.1092313491
O       -7.0409112536   -0.8423953158    3.2349022983
O       -5.8117749941   -1.9273972286    4.7599939438
H       -0.0626375878    0.0766682064   -0.0482293056
H       -1.9100864864   -1.5565464900    0.1886554410
H       -1.7494538774    2.4160543785    3.1760686588
H       -4.2459139283    1.2614175687    4.2574946162
H        0.6479629125    2.7657308223    3.5042610446
H        2.0800049274    3.1018830622    2.5073003872
H        1.6318844808    1.4244342625    2.8762456872
H       -0.7882446604    4.1521741457    1.8145273383
H       -0.7414927289    3.6996484297    0.0956184179
H        0.6772422593    4.4478582830    0.8555764580
H        1.0243829123    2.0326868546    0.5591639673
H       -4.2438559806   -2.0939244236    1.6412127771
H       -6.7168097076   -2.1770590998    5.0048996869
28   

C       -0.7439225897    0.1572897638    0.7589783538
C       -1.7460358604   -0.8104576951    0.9106116186
C       -1.6912251103    1.4398051035    2.5891289640
C       -3.8513081735    0.3746548659    3.5871694686
C       -2.6873647495    0.4681739207    2.7247164894
C       -0.6992237837    1.2956446087    1.5923565706
C       -2.7061643176   -0.6339613214    1.8992601957
C       -4.5177212593   -0.7890634660    3.2618941724
C       -5.8931500848   -1.1982705473    3.6370293352
C        1.2926304245    2.4020263584    2.6248759390
C       -0.2159163647    3.7073331135    1.0779222182
C        0.3858889382    2.3342687419    1.3939615201
N       -3.8084699640   -1.4199677163    2.2124600169
O       -6.8444208643   -1.1888765178    2.8768579809
O       -6.0403176600   -1.4929542384    4.9485456856
H        0.0002020173    0.0239559617   -0.0178049391
H       -1.7804601493   -1.6758992052    0.2610614506
H       -1.6985578149    2.3030945985    3.2428453633
H       -4.1830516207    1.1176671312    4.3018659679
H        0.7278031695    2.7086574075    3.5104335500
H        2.1011787694    3.1209406600    2.4599426292
H        1.7374183168    1.4202233772    2.8158924921
H       -0.8267151142    4.0713622630    1.9093960682
H       -0.8436982842    3.6449502239    0.1833086272
H        0.5803555418    4.4342317110    0.8894010659
H        1.0041584401    2.0401086120    0.5391364282
H       -4.1146481291   -2.2441521985    1.7024250693
H       -6.9828559850   -1.6956421847    5.0585052437
28   

C       -0.7579437226    0.1641630064    0.7396930801
C       -1.7583585524   -0.8059135589    0.8876154356
C       -1.6846076118    1.4183052373    2.5998622018
C       -3.8344114143    0.3388104427    3.6042226102
C       -2.6790883917    0.4445110409    2.7316991725
C       -0.7040779455    1.2897784320    1.5897034625
C       -2.7072955985   -0.6447526505    1.8895301533
C       -4.5059452877   -0.8219427994    3.2684075845
C       -5.8724523689   -1.2385256555    3.6315096434
C        1.2965760763    2.3858082516    2.6170227689
C       -0.2290758809    3.7081777980    1.1016532898
C        0.3779029530    2.3322025176    1.3942894165
N       -3.8073517862   -1.4343786433    2.2013715895
O       -6.7562650720   -1.4747885331    2.8241463212
O       -6.1182755226   -1.2205556535    4.9616024076
H       -0.0227056487    0.0429140786   -0.0474574099
H       -1.8004703436   -1.6612155406    0.2251841170
H       -1.6849393054    2.2717170025    3.2664743995
H       -4.1605199366    1.0714981554    4.3322048650
H        0.7401533908    2.6806553263    3.5118489228
H        2.1025570699    3.1078364940    2.4531281903
H        1.7444326151    1.4023061512    2.7913732936
H       -0.8324667472    4.0604147564    1.9435593112
H       -0.8653630855    3.6561719317    0.2123958044
H        0.5641612183    4.4388130069    0.9148017021
H        0.9882075742    2.0498666279    0.5298100322
H       -4.1307770268   -2.2420569745    1.6748440876
H       -7.0537200737   -1.4634465359    5.0491607059
28   

C       -0.7797368001    0.1994909727    0.7074135279
C       -1.7853596360   -0.7663953229    0.8463629656
C       -1.6867332621    1.4299935120    2.5930848665
C       -3.8314042601    0.3422325033    3.6013901004
C       -2.6862611262    0.4602417922    2.7164790585
C       -0.7133576320    1.3111149802    1.5747652035
C       -2.7266028396   -0.6152359786    1.8569272879
C       -4.5104849702   -0.8114995654    3.2529426883
C       -5.8466392577   -1.2737979431    3.6447136256
C        1.2973671264    2.3808107521    2.6116571475
C       -0.2233624631    3.7313706255    1.1161784363
C        0.3755531821    2.3482473441    1.3904104531
N       -3.8258806243   -1.4060710600    2.1674953004
O       -6.6656075215   -1.7429806067    2.8685574269
O       -6.1574051929   -1.0353090492    4.9399894086
H       -0.0496281326    0.0854096757   -0.0855608137
H       -1.8363539274   -1.6118501543    0.1719936286
H       -1.6763813488    2.2719575391    3.2740303878
H       -4.1416063952    1.0567200600    4.3541456097
H        0.7452196482    2.6687858621    3.5113451040
H        2.1079430117    3.0991965737    2.4545325486
H        1.7388970085    1.3922635777    2.7731807850
H       -0.8231939749    4.0764326374    1.9635923509
H       -0.8615302120    3.6942859707    0.2275224968
H        0.5740166934    4.4594075273    0.9370350440
H        0.9822699492    2.0725581248    0.5212717226
H       -4.1575869899   -2.2098132710    1.6391459265
H       -7.0704175485   -1.3480530255    5.0422295821
28   

C       -0.8191422189    0.2272808531    0.6715775380
C       -1.8334244422   -0.7304149693    0.8032382726
C       -1.7038806941    1.4415348784    2.5784257905
C       -3.8450890314    0.3524985424    3.5947048168
C       -2.7118436499    0.4796945788    2.6951712829
C       -0.7369680449    1.3263348262    1.5534601184
C       -2.7672360527   -0.5837418893    1.8212120342
C       -4.5345213537   -0.7925578969    3.2365307664
C       -5.8312240936   -1.3082785185    3.6743937770
C        1.2859687851    2.3634040290    2.6014532316
C       -0.2198967063    3.7442836686    1.1185285854
C        0.3639794701    2.3524593129    1.3797403639
N       -3.8663932640   -1.3734404122    2.1341194887
O       -6.5694137211   -1.9889497970    2.9756171731
O       -6.2046962820   -0.9014986148    4.9101974621
H       -0.0935730027    0.1157008570   -0.1259049114
H       -1.8951559891   -1.5677102189    0.1196275331
H       -1.6799574080    2.2729169616    3.2719242617
H       -4.1330553345    1.0473617979    4.3743041439
H        0.7373072992    2.6497578430    3.5037754969
H        2.1048202411    3.0737585796    2.4508281904
H        1.7161424523    1.3684655624    2.7542127628
H       -0.8168990740    4.0870781806    1.9688686200
H       -0.8576476079    3.7224102069    0.2290759076
H        0.5853066826    4.4655151263    0.9470880903
H        0.9680728112    2.0781558631    0.5083381536
H       -4.1998187848   -2.1830234712    1.6150615212
H       -7.0835716924   -1.2893482687    5.0484053081
28   

C       -0.8908742163    0.2300985636    0.6208639773
C       -1.9188707008   -0.7134174910    0.7474843783
C       -1.7422720541    1.4321054615    2.5507068677
C       -3.8808115058    0.3506523709    3.5824137867
C       -2.7634874589    0.4838181691    2.6633756349
C       -0.7848735055    1.3155523796    1.5169109165
C       -2.8420920571   -0.5664236614    1.7749213567
C       -4.5873763992   -0.7815025797    3.2157750104
C       -5.8371037687   -1.3473621823    3.7156515751
C        1.2532109406    2.3147249579    2.5758927476
C       -0.2276559374    3.7250716400    1.0953545990
C        0.3339325093    2.3235395401    1.3518061371
N       -3.9432580169   -1.3506569973    2.0936541781
O       -6.4818163694   -2.2064048139    3.1287967693
O       -6.2681301199   -0.8125055144    4.8822375681
H       -0.1720634778    0.1169870812   -0.1825007217
H       -1.9972030420   -1.5420417101    0.0550520035
H       -1.6982888617    2.2519859134    3.2568095283
H       -4.1368770577    1.0229422107    4.3924191329
H        0.7078634300    2.6074813686    3.4781428664
H        2.0842824024    3.0116609870    2.4295162560
H        1.6663329668    1.3122240482    2.7263191689
H       -0.8229343557    4.0720466998    1.9452359256
H       -0.8622526329    3.7169765080    0.2034203747
H        0.5889698871    4.4348957770    0.9305523357
H        0.9361843709    2.0432378820    0.4810376994
H       -4.2759741349   -2.1706014681    1.5901484765
H       -7.1027080201   -1.2687501658    5.0754408363
28   

C       -0.9242981722    0.2957632192    0.5687669951
C       -1.9643005234   -0.6367166731    0.6774075169
C       -1.7570471409    1.4679612977    2.5249650835
C       -3.8931746733    0.3776671001    3.5531632264
C       -2.7894559240    0.5299501446    2.6205540214
C       -0.8026224158    1.3604746793    1.4874098186
C       -2.8834676110   -0.4997279476    1.7098119588
C       -4.6110752842   -0.7411827637    3.1681267914
C       -5.8023309394   -1.3745190379    3.7238753191
C        1.2434414204    2.3144847115    2.5756827389
C       -0.2071453390    3.7656575358    1.1045745594
C        0.3328211313    2.3532170912    1.3453707977
N       -3.9849730215   -1.2852651827    2.0236562367
O       -6.3227331952   -2.3789757096    3.2558742072
O       -6.3065837551   -0.7606171380    4.8201214061
H       -0.2068649996    0.1888044586   -0.2366682257
H       -2.0524082784   -1.4517028671   -0.0298830222
H       -1.6990275421    2.2699956073    3.2502942203
H       -4.1200566845    1.0162630989    4.3983812964
H        0.6968250413    2.6040323346    3.4781786605
H        2.0859929367    3.0005028980    2.4440080134
H        1.6404523258    1.3040193133    2.7159392465
H       -0.8047043637    4.1081942385    1.9546790743
H       -0.8345243101    3.7787627555    0.2076179162
H        0.6204688360    4.4663502956    0.9564574499
H        0.9375651645    2.0760031737    0.4753417071
H       -4.3057215838   -2.1159644128    1.5298939226
H       -7.0822978292   -1.2878551106    5.0697343672
