27   
Generated by ForceBalance from scan.xyz: Frame 1 of 13
C       -1.6166547960   -0.4747072609    1.7799254853
C       -0.5619092910   -0.7038675724    0.8838883860
C       -2.4478363273   -1.5217175264    2.1941068092
C       -0.3094440826   -1.9874070609    0.3812294033
C       -2.2013556503   -2.7997692483    1.6969905481
C       -1.1455033611   -3.0077828478    0.8119910809
C       -2.9714762678   -4.0373882172    2.0169250355
C       -2.2416826896   -7.1384680975    2.7179635747
C       -2.7253462448   -8.2178324353    3.4071552909
C       -2.8697131865   -6.4889223063    1.5006027502
C       -3.6649704999   -8.2393293566    4.5758054572
N       -2.4538622933   -5.0980061422    1.2808853695
O       -3.9121646239   -4.1346921832    2.7882694012
O       -1.3422750451   -4.9328629865   -1.0687198948
O        0.1081804214   -5.3976614875    0.9388361148
S       -1.0536324500   -4.7310268617    0.3494486361
Br      -2.6335459047   -7.8347341852    6.2428364801
H       -1.7887284399    0.5299787984    2.1551770194
H        0.0704250236    0.1233400989    0.5745529382
H       -3.2696313593   -1.3637158471    2.8859543589
H        0.5048458331   -2.1730361082   -0.3123740192
H       -1.1698883029   -7.2271517914    2.5127256197
H       -1.9068752910   -8.8998549779    3.6622254948
H       -2.5531428572   -7.0702962937    0.6308898466
H       -3.9628748091   -6.4942373654    1.5301535973
H       -4.1000400064   -9.2181911708    4.7728499372
H       -4.4455431940   -7.4802458579    4.5417417093
27   
Generated by ForceBalance from scan.xyz: Frame 2 of 13
C       -1.6427542713   -0.5952299632    1.9423941011
C       -0.6300251449   -0.7219866617    0.9799581473
C       -2.4251263153   -1.6952329396    2.3115619095
C       -0.3713156215   -1.9533008941    0.3625955253
C       -2.1722309019   -2.9212362299    1.6996766611
C       -1.1580258850   -3.0287270120    0.7498593351
C       -2.8896563965   -4.2033295676    1.9567935523
C       -2.0467048257   -7.2578584616    2.4638357716
C       -2.6513860754   -8.1200049121    3.3244266904
C       -2.7363604555   -6.6033213883    1.2859784176
C       -3.6231053601   -7.7431052720    4.4029102130
N       -2.4061471970   -5.1802295745    1.0938976073
O       -3.7675082806   -4.3982110313    2.7837038367
O       -1.3866651265   -4.7967796493   -1.2739865471
O        0.1432068270   -5.3980052303    0.6371770514
S       -1.0499730323   -4.7078241754    0.1449670708
Br      -2.5848075335   -7.2594529936    6.0412654253
H       -1.8202019829    0.3711036966    2.4055682720
H       -0.0350935687    0.1452591923    0.7083764727
H       -3.2135141652   -1.6169722281    3.0540823269
H        0.4108236323   -2.0589834202   -0.3828505212
H       -1.0206112178   -7.5254569680    2.2008917103
H       -1.9811611265   -8.9020198939    3.6913310289
H       -2.4405332454   -7.1383605846    0.3806913837
H       -3.8235091774   -6.6578728958    1.3733484561
H       -4.2671569764   -8.5563156084    4.7354231107
H       -4.2105270521   -6.8559593624    4.1699636136
27   
Generated by ForceBalance from scan.xyz: Frame 3 of 13
C       -1.6754801486   -0.6334593608    1.9977156458
C       -0.6764361692   -0.7465973081    1.0193997570
C       -2.4461170418   -1.7403816968    2.3709387916
C       -0.4204757573   -1.9720330455    0.3893771204
C       -2.1953077975   -2.9603965397    1.7464596280
C       -1.1950446472   -3.0547661400    0.7807581335
C       -2.9006264103   -4.2485076729    2.0061630041
C       -1.9698437133   -7.3268292010    2.4280738735
C       -2.5490292786   -8.0933561616    3.3796831040
C       -2.7368325766   -6.6469510953    1.3158672500
C       -3.5952139010   -7.6188412301    4.3421323613
N       -2.4189557410   -5.2191234331    1.1361841202
O       -3.7711089226   -4.4498324646    2.8397707431
O       -1.4604297332   -4.8068236192   -1.2513625582
O        0.1207038449   -5.4132642343    0.6158303211
S       -1.0890469381   -4.7278221076    0.1595663180
Br      -2.6781761267   -7.0050475578    6.0078941902
H       -1.8513810070    0.3283654200    2.4707200204
H       -0.0905293045    0.1260430398    0.7454411728
H       -3.2233403947   -1.6722456389    3.1261064493
H        0.3509249499   -2.0679506896   -0.3684723217
H       -0.9593512805   -7.5984556069    2.1207297187
H       -1.9087258971   -8.8561830849    3.8265768324
H       -2.5124021761   -7.1570473274    0.3758701685
H       -3.8148039882   -6.6989763383    1.4790140008
H       -4.2753650144   -8.3955653257    4.6904097858
H       -4.1466690145   -6.7487047202    3.9898977142
27   
Generated by ForceBalance from scan.xyz: Frame 4 of 13
C       -1.6613012266   -0.6407415877    2.0335564759
C       -0.6624411521   -0.7491463114    1.0545417348
C       -2.4328603906   -1.7497463622    2.3986126796
C       -0.4076091096   -1.9702449935    0.4156851655
C       -2.1835539138   -2.9658044800    1.7660223915
C       -1.1837195609   -3.0545936071    0.7994892266
C       -2.8933697532   -4.2534682628    2.0156947889
C       -1.9139682684   -7.3823695393    2.3238916754
C       -2.4306474994   -8.0452002873    3.3765805128
C       -2.7408742559   -6.6487247590    1.2927283878
C       -3.5128365205   -7.5291997523    4.2711740701
N       -2.4039446353   -5.2216970802    1.1484493688
O       -3.7746771313   -4.4529823431    2.8383263122
O       -1.4656700778   -4.7938660272   -1.2426132144
O        0.1336492818   -5.4087832534    0.6058344587
S       -1.0811310587   -4.7226822960    0.1653804016
Br      -2.6581469519   -6.7654790014    5.9091414909
H       -1.8362158049    0.3180526917    2.5130567628
H       -0.0753897040    0.1245794949    0.7866237643
H       -3.2102149741   -1.6863239061    3.1540221871
H        0.3638721701   -2.0617607369   -0.3426361807
H       -0.9312957712   -7.6816560958    1.9625320588
H       -1.7880222321   -8.7815048646    3.8598602294
H       -2.5985828205   -7.1212942242    0.3171267642
H       -3.8055147093   -6.6812403361    1.5277824081
H       -4.1776192014   -8.3006125353    4.6590347703
H       -4.0797423642   -6.7036623911    3.8461394054
27   
Generated by ForceBalance from scan.xyz: Frame 5 of 13
C       -1.9436496793   -0.7654699613    2.1757260472
C       -0.7417983395   -0.9114710968    1.4668612235
C       -2.8275231955   -1.8407466819    2.3183988234
C       -0.3926358453   -2.1368245896    0.8835017375
C       -2.4846646122   -3.0607381882    1.7400449180
C       -1.2854480553   -3.1868791574    1.0435103364
C       -3.2851821673   -4.3163538107    1.7951662274
C       -2.1571289470   -7.5717021588    2.0648653072
C       -2.3978157972   -7.7584959459    3.3742464612
C       -3.0106001597   -6.7364544473    1.1307532560
C       -3.0757600150   -6.7780394567    4.2713249015
N       -2.6245957119   -5.3140840817    1.0913961294
O       -4.3586662268   -4.4677904883    2.3619956844
O       -1.1983567502   -4.8894671652   -1.0417160136
O       -0.0301609723   -5.5832433851    1.0803035899
S       -1.1049426320   -4.8490393600    0.4167338832
Br      -1.7491410843   -5.3973341545    4.8747103978
H       -2.1875859198    0.1951992504    2.6201215203
H       -0.0690299808   -0.0642678852    1.3692771905
H       -3.7599010860   -1.7499396706    2.8670628829
H        0.5367069453   -2.2581471800    0.3356007725
H       -1.4413082928   -8.2338191053    1.5839164089
H       -1.7885056300   -8.5037049211    3.8840305794
H       -2.9571517798   -7.1286692741    0.1125190748
H       -4.0562950340   -6.7341400335    1.4415472321
H       -3.4389036990   -7.2213943933    5.1966236791
H       -3.8623897907   -6.1957640428    3.7955404002
27   
Generated by ForceBalance from scan.xyz: Frame 6 of 13
C       -1.9655013344   -0.7392647670    2.2112849106
C       -0.7456311262   -0.9036973967    1.5382612875
C       -2.8576723724   -1.8080389024    2.3511638704
C       -0.3881126731   -2.1416541975    0.9872300341
C       -2.5047186690   -3.0395727592    1.8046525718
C       -1.2900708397   -3.1847931523    1.1396173782
C       -3.3100324198   -4.2915823474    1.8678908003
C       -2.2348967566   -7.6262595508    2.0767802459
C       -2.3187894407   -7.6971203570    3.4142937828
C       -3.0630308951   -6.7144554534    1.1926525079
C       -2.9906768944   -6.6989378142    4.2918111794
N       -2.6229052930   -5.3115067516    1.2269973599
O       -4.4050914753   -4.4237306556    2.3976360041
O       -1.1986266675   -4.9321622239   -0.9112064395
O       -0.0212189446   -5.5707678310    1.2226543672
S       -1.1012692440   -4.8583480015    0.5463873707
Br      -1.6761346506   -5.2766703312    4.8288953961
H       -2.2167490706    0.2305795007    2.6309757608
H       -0.0658356197   -0.0617833727    1.4435621899
H       -3.8030539834   -1.7039023617    2.8746956896
H        0.5556258803   -2.2775255994    0.4681875833
H       -1.6002995595   -8.3415172189    1.5599941106
H       -1.6997396808   -8.4309454278    3.9266951046
H       -3.0309614672   -7.0541884210    0.1544265965
H       -4.1086728412   -6.6896492179    1.5062734798
H       -3.3225113819   -7.1214725833    5.2384431827
H       -3.8013616065   -6.1495516557    3.8184920979
27   
Generated by ForceBalance from scan.xyz: Frame 7 of 13
C       -2.0035549552   -0.8137391430    2.0634231252
C       -0.7592695521   -0.9854451148    1.4386210050
C       -2.8959945452   -1.8835238107    2.1928822407
C       -0.3763496293   -2.2321667325    0.9259254925
C       -2.5188921775   -3.1238697716    1.6841070514
C       -1.2808086811   -3.2750057444    1.0651611265
C       -3.3179472990   -4.3793692186    1.7494055458
C       -2.2692075878   -7.7437422477    1.9987581456
C       -2.2338723811   -7.6932647892    3.3386759876
C       -3.0522741555   -6.8047697322    1.1019614710
C       -2.9553844133   -6.7084033778    4.1876168472
N       -2.5910131499   -5.4134358093    1.1782553321
O       -4.4362347430   -4.5054442153    2.2294764760
O       -1.1238032040   -5.0805321462   -0.9347855877
O        0.0186196325   -5.6346755001    1.2410875284
S       -1.0580321651   -4.9612665091    0.5219156491
Br      -1.7156704538   -5.2137623145    4.7164870939
H       -2.2733616008    0.1628146711    2.4550882800
H       -0.0797243040   -0.1424112305    1.3525743958
H       -3.8591052949   -1.7738833635    2.6818108742
H        0.5870029384   -2.3745828632    0.4460941208
H       -1.6683506951   -8.4970778205    1.4956950410
H       -1.5925982190   -8.3979485272    3.8635173770
H       -2.9883937919   -7.1283642829    0.0598257935
H       -4.1106153230   -6.7673220455    1.3726663734
H       -3.2728310227   -7.1309846087    5.1391783406
H       -3.7877328593   -6.2094604453    3.6972103070
27   
Generated by ForceBalance from scan.xyz: Frame 8 of 13
C       -1.9608300774   -0.4151721602    1.8486151841
C       -0.7022928105   -0.6035978603    1.2580756182
C       -2.8543580681   -1.4822845899    1.9915293814
C       -0.3055886736   -1.8650975818    0.7945773051
C       -2.4640922319   -2.7372897115    1.5310315390
C       -1.2118510018   -2.9047259975    0.9458464824
C       -3.2622147743   -3.9919081687    1.6176340962
C       -2.2552179313   -7.3651411131    1.9663081283
C       -2.1016192111   -7.1818079637    3.2863494365
C       -2.9901478444   -6.4281046657    1.0259263298
C       -2.8697100749   -6.2190266955    4.1176706388
N       -2.5158427580   -5.0440384280    1.1060863316
O       -4.3938903593   -4.1053182771    2.0678020014
O       -1.0076944041   -4.7802086250   -0.9861714208
O        0.0970502257   -5.2453351098    1.2295566451
S       -0.9703994379   -4.6074042352    0.4663549640
Br      -1.7149052639   -4.6529289144    4.6402598085
H       -2.2408654869    0.5725893528    2.2032403407
H       -0.0223535213    0.2378852231    1.1607652438
H       -3.8281675226   -1.3594877229    2.4554474377
H        0.6689992373   -2.0208417232    0.3423703645
H       -1.6834211903   -8.1579190630    1.4898178531
H       -1.4339602891   -7.8489694698    3.8269789275
H       -2.8835638229   -6.7679489245   -0.0075823603
H       -4.0610416459   -6.3740230886    1.2430466474
H       -3.1648246000   -6.6500090081    5.0726429638
H       -3.7256945026   -5.7717985907    3.6184840256
27   
Generated by ForceBalance from scan.xyz: Frame 9 of 13
C       -2.0215065653   -0.5879034971    1.9536396521
C       -0.7523156953   -0.7757400751    1.3861167562
C       -2.9197694677   -1.6537562421    2.0739437884
C       -0.3495406864   -2.0355993478    0.9234893627
C       -2.5236561093   -2.9069215317    1.6133147207
C       -1.2611780242   -3.0737166827    1.0504553559
C       -3.3258987920   -4.1600522766    1.6770603823
C       -2.4339083145   -7.5649492623    1.9927746249
C       -2.1354359815   -7.3151813326    3.2784786854
C       -3.0652661811   -6.5799642881    1.0241176187
C       -2.8704591038   -6.3674081115    4.1556929217
N       -2.5678192056   -5.2138022673    1.1855775172
O       -4.4687277296   -4.2730775780    2.0978279595
O       -1.0377952301   -4.9410315109   -0.8882470423
O        0.0471119139   -5.4125669430    1.3360013924
S       -1.0137717109   -4.7735619714    0.5654558617
Br      -1.7161804587   -4.8049059665    4.6948283185
H       -2.3061457776    0.3984911782    2.3083926367
H       -0.0689459686    0.0648021476    1.3062765043
H       -3.9015807822   -1.5313518181    2.5207875466
H        0.6333524564   -2.1912922278    0.4896405776
H       -1.9491406898   -8.4209172855    1.5270627803
H       -1.4742562022   -8.0132747320    3.7880485028
H       -2.8687913390   -6.8964911826   -0.0037519549
H       -4.1520929571   -6.5074772152    1.1372156502
H       -3.1329324569   -6.8309418265    5.1048648635
H       -3.7449793741   -5.9158516987    3.6939983138
27   
Generated by ForceBalance from scan.xyz: Frame 10 of 13
C       -2.1208294580   -0.5081605502    2.0527446139
C       -0.8431783179   -0.6988588010    1.5056154270
C       -3.0367079431   -1.5633336302    2.1242915615
C       -0.4496862271   -1.9507012063    1.0140610384
C       -2.6495205783   -2.8082995497    1.6348404663
C       -1.3789684269   -2.9778008220    1.0912414033
C       -3.4689204282   -4.0521391742    1.6517626736
C       -2.7331514256   -7.4575460379    1.9556633202
C       -2.2824635722   -7.1638540464    3.1889700416
C       -3.2287078952   -6.4540594694    0.9251220536
C       -2.9451420919   -6.2134980658    4.1228458576
N       -2.7216142875   -5.0998010312    1.1338198420
O       -4.6165276594   -4.1635122581    2.0600655131
O       -1.1393455400   -4.7894687621   -0.8956090639
O       -0.1142458164   -5.3471915116    1.3366003149
S       -1.1456371846   -4.6660624473    0.5624881736
Br      -1.7382243850   -4.6924037406    4.6661147300
H       -2.3981392038    0.4717415519    2.4305273550
H       -0.1458226124    0.1329495352    1.4646627100
H       -4.0250836031   -1.4392332680    2.5559383881
H        0.5395329674   -2.1086634248    0.5957070322
H       -2.3596091755   -8.3774769763    1.5064863518
H       -1.6445099059   -7.8980094455    3.6785235590
H       -2.9080783391   -6.7849325534   -0.0664791201
H       -4.3201241968   -6.3627811624    0.8928227036
H       -3.1780390069   -6.7064666376    5.0647218297
H       -3.8290089775   -5.7314232641    3.7130081879
27   
Generated by ForceBalance from scan.xyz: Frame 11 of 13
C       -2.3248903012   -0.7146048860    1.9547093463
C       -1.0579624778   -0.8844173566    1.3771130054
C       -3.2429801693   -1.7695898488    1.9957990672
C       -0.6778085262   -2.1142207464    0.8230807892
C       -2.8692523474   -2.9932508377    1.4463393690
C       -1.6085208957   -3.1413825722    0.8734408551
C       -3.6900202892   -4.2368466122    1.4291043175
C       -3.1309207005   -7.5813606233    1.7597626086
C       -2.5016044253   -7.2935892970    2.9190447598
C       -3.4490403754   -6.6155622683    0.6299927328
C       -2.9889088981   -6.3056740845    3.9238525774
N       -2.9575869168   -5.2583017720    0.8458667646
O       -4.8241876629   -4.3706382267    1.8674966904
O       -1.4120975001   -4.8553854517   -1.1990432198
O       -0.3532090948   -5.5334729071    0.9821498344
S       -1.3915865996   -4.8042588782    0.2631460535
Br      -1.6412520224   -4.8696389188    4.3701685609
H       -2.5920066903    0.2482999292    2.3805057667
H       -0.3583579553   -0.0536433975    1.3609326354
H       -4.2229802380   -1.6614000292    2.4502537030
H        0.3032153041   -2.2560314774    0.3803530968
H       -2.9466561361   -8.5824963283    1.3647600086
H       -1.9468689858   -8.1131186206    3.3762833376
H       -2.9662303510   -7.0016101986   -0.2720814452
H       -4.5190341951   -6.5362422662    0.4061527986
H       -3.1581581075   -6.8012372852    4.8772059118
H       -3.8756593221   -5.7620986123    3.6099206664
27   
Generated by ForceBalance from scan.xyz: Frame 12 of 13
C       -2.3741914786   -0.7976890723    1.9807532951
C       -1.1034955234   -0.9393018329    1.4042273205
C       -3.2913838466   -1.8541392786    1.9662110455
C       -0.7187879878   -2.1413569324    0.7949394210
C       -2.9123406375   -3.0507195182    1.3636971407
C       -1.6469601066   -3.1716957622    0.7942122259
C       -3.7257622849   -4.2977771473    1.2961669958
C       -3.2988511479   -7.4975833474    1.7644863918
C       -2.5669806135   -7.2211404201    2.8736703033
C       -3.4332301542   -6.6682588729    0.5019962997
C       -2.9247399161   -6.2130769203    3.9160057398
N       -3.0011501697   -5.2802518223    0.6422845250
O       -4.8449875152   -4.4672817746    1.7600551641
O       -1.4190962152   -4.7677080831   -1.3587791285
O       -0.4112929911   -5.5875038050    0.7974281351
S       -1.4269513874   -4.8028387048    0.1033501361
Br      -1.4870759278   -4.8309180958    4.2634291890
H       -2.6448796113    0.1437591131    2.4500320255
H       -0.4042789035   -0.1085242859    1.4324177329
H       -4.2741493043   -1.7679879824    2.4194884424
H        0.2651625406   -2.2611949590    0.3523046678
H       -3.2568997469   -8.5518093488    1.4733005403
H       -2.1231988057   -8.1076082265    3.3310142243
H       -2.7852113720   -7.1381513957   -0.2428303769
H       -4.4481471893   -6.6671601109    0.0888361974
H       -3.0414982173   -6.7030474610    4.8790791296
H       -3.8052555925   -5.6284716617    3.6660564082
27   
Generated by ForceBalance from scan.xyz: Frame 13 of 13
C       -2.1987696047   -0.6680139468    2.1912109039
C       -0.9114220792   -0.7797063043    1.6453685168
C       -3.0976541895   -1.7382511296    2.1370238723
C       -0.4910781928   -1.9650609322    1.0276664437
C       -2.6827198044   -2.9192068890    1.5268896548
C       -1.4013392470   -3.0107032381    0.9893520233
C       -3.4696962122   -4.1802960274    1.4264131562
C       -3.1001779352   -7.1964923238    2.0838930992
C       -2.3578907102   -6.8922710436    3.1893321627
C       -3.0793036541   -6.5504790748    0.7129626751
C       -2.7244262811   -5.9153196324    4.2602966305
N       -2.7360521305   -5.1270672942    0.7257634667
O       -4.5758954491   -4.3898967240    1.9042813712
O       -1.0314805292   -4.5675445703   -1.1687811270
O       -0.1643520996   -5.4254704320    1.0349530099
S       -1.1345486722   -4.6293819826    0.2877504979
Br      -1.3304863468   -4.4728445097    4.5828896820
H       -2.4965782280    0.2612325653    2.6682322717
H       -0.2270199546    0.0616832471    1.7047817322
H       -4.0925847650   -1.6755240915    2.5669451427
H        0.5053085508   -2.0616899700    0.6077666003
H       -3.0837980496   -8.2761470051    1.8875821009
H       -1.9620789986   -7.7931126996    3.6656465500
H       -2.2975679401   -7.0691312153    0.1521679844
H       -4.0185025780   -6.6794839553    0.1647834476
H       -2.7925776058   -6.4172087896    5.2208516882
H       -3.6282308733   -5.3572301104    4.0337368059
