22   
Generated by ForceBalance from scan.xyz: Frame 1 of 24
C       -0.1978216505   -0.0655944949    1.5241069352
C       -0.3056463539   -1.1619882989   -0.6885110199
C       -0.0697195725   -1.4219780549    0.8163018202
C       -1.0100517289   -2.4888042898    1.3831522114
C        1.5248172389    2.6646971736    1.9013208799
N        0.5400930484    0.8809597088    0.6732179898
N        0.4659811639    2.2550218712    0.9809422419
O        1.0633820917    0.8868264032   -1.8984297743
O       -1.3268823868    1.2827243019   -1.1301926300
S       -0.0220173722    0.6241445120   -0.9553616775
H       -1.2548201160    0.2284223319    1.6388387901
H        0.2685046426   -0.0919652052    2.5122895884
H        0.3731498548   -1.7120884177   -1.3403814857
H       -1.3398573729   -1.3372971881   -0.9892307677
H        0.9669047477   -1.7551561228    0.9216207487
H       -2.0427370513   -2.3171658198    1.0618632108
H       -0.9798889785   -2.5024047526    2.4776917263
H       -0.7246287260   -3.4849860779    1.0296525825
H        2.4905922572    2.4954104085    1.4209457206
H        1.4111717261    3.7363913130    2.0894400119
H        1.5114417346    2.1346753584    2.8669373938
H       -0.4650451133    2.4965962783    1.3244297202
22   
Generated by ForceBalance from scan.xyz: Frame 2 of 24
C       -0.1369412496    0.0842250337    1.5658267842
C       -0.2378122073   -0.9230931097   -0.6855235459
C       -0.0132618794   -1.2455266831    0.8104026238
C       -0.9598666724   -2.3358542401    1.3344305464
C        1.6143985704    2.7744990462    2.0724046454
N        0.6242246347    1.0533043179    0.7617248540
N        0.5653571120    2.4148668115    1.1209030601
O        1.1933357601    1.1377952366   -1.7984750918
O       -1.2013006783    1.5565254348   -1.0571912764
S        0.0864253199    0.8649309587   -0.8835086486
H       -1.1923924491    0.3855675646    1.6769677234
H        0.3146780982    0.0168447199    2.5589465371
H        0.4309958384   -1.4638624727   -1.3553644657
H       -1.2744123176   -1.0625315667   -0.9956230142
H        1.0220950089   -1.5862724213    0.8980288316
H       -1.9273762218   -2.3094392218    0.8237297719
H       -1.1257489085   -2.2392012940    2.4121522447
H       -0.5404164761   -3.3307966268    1.1540402508
H        2.5854167327    2.6047996342    1.6028461973
H        1.5157193474    3.8410105372    2.2952096681
H        1.5754785705    2.2124178944    3.0190889631
H       -0.3679830605    2.6592526513    1.4557473423
22   
Generated by ForceBalance from scan.xyz: Frame 3 of 24
C       -0.1816720363    0.0001216843    1.5300589011
C       -0.3799342108   -1.0234668738   -0.6932713692
C       -0.0640799003   -1.3357449321    0.7843030003
C       -0.9489628004   -2.4507307455    1.3757014522
C        1.5526528116    2.7058561373    1.9823612047
N        0.5610994279    0.9626282302    0.7027554117
N        0.5007388904    2.3293154856    1.0403124299
O        1.1393276115    0.9445557403   -1.8565700214
O       -1.2388190577    1.4846597955   -1.1407471764
S        0.0176885773    0.7457336066   -0.9400018547
H       -1.2374689684    0.2957080341    1.6557281779
H        0.2862094974   -0.0562776247    2.5164816757
H        0.2054998236   -1.6064146283   -1.4047832474
H       -1.4440201714   -1.1100061997   -0.9189445419
H        0.9857655368   -1.6390780416    0.8205641875
H       -1.8304060606   -2.6434824782    0.7570966031
H       -1.2879600214   -2.2007667716    2.3860701740
H       -0.3995033403   -3.3942424990    1.4393002089
H        2.5222836411    2.5320357171    1.5114170432
H        1.4515039884    3.7752427580    2.1898238728
H        1.5191510867    2.1577769772    2.9373703339
H       -0.4317551915    2.5776039529    1.3749375481
22   
Generated by ForceBalance from scan.xyz: Frame 4 of 24
C       -0.1687710450    0.0047030712    1.5345895400
C       -0.3912562068   -0.9949284746   -0.6952617997
C       -0.0587266400   -1.3248844420    0.7726847076
C       -0.9340429883   -2.4478566476    1.3703131815
C        1.5835701895    2.6983779772    1.9982230260
N        0.5710810079    0.9729043502    0.7110284115
N        0.5198493452    2.3360322234    1.0639477237
O        1.1189165719    0.9815228443   -1.8555405393
O       -1.2488475439    1.5207055071   -1.1050203575
S        0.0077673605    0.7760381128   -0.9277087925
H       -1.2227268327    0.3022721149    1.6692242552
H        0.3050146012   -0.0623166667    2.5175927146
H        0.1843047290   -1.5717472852   -1.4197676456
H       -1.4584045834   -1.0775804133   -0.9081685984
H        0.9944571155   -1.6150578615    0.8142369345
H       -1.6518444949   -2.8376226126    0.6426375971
H       -1.5106846357   -2.0884416983    2.2288591222
H       -0.3254294614   -3.2886524307    1.7125746572
H        2.5472419145    2.5255341479    1.5148509415
H        1.4892385419    3.7659267928    2.2179939860
H        1.5582152610    2.1403805849    2.9477323340
H       -0.4079125926    2.5843977230    1.4114099510
22   
Generated by ForceBalance from scan.xyz: Frame 5 of 24
C       -0.0096201256    0.1468112420    1.6670933123
C       -0.2056854060   -0.7371447887   -0.6147495142
C        0.0877178983   -1.1460573194    0.8398627911
C       -0.8268270026   -2.2713516173    1.3618248014
C        1.8026671368    2.7699581149    2.2914035520
N        0.7680737132    1.1365629739    0.9054858245
N        0.7431120002    2.4809342001    1.3272661036
O        1.3450842817    1.2765378629   -1.6511578772
O       -1.0232671995    1.8088799658   -0.8969913589
S        0.2209246981    1.0375162163   -0.7474491825
H       -1.0587038495    0.4631827172    1.7952791167
H        0.4424035663    0.0223343915    2.6547676381
H        0.3798682542   -1.2856667271   -1.3530600269
H       -1.2687311422   -0.7960577413   -0.8551025754
H        1.1337573674   -1.4569468807    0.9084772515
H       -1.3311192478   -2.7953659770    0.5442926182
H       -1.6197006171   -1.8664164496    2.0002938967
H       -0.2692277842   -3.0050133153    1.9490796545
H        2.7683540524    2.6009855698    1.8107057164
H        1.7289152567    3.8264023733    2.5658896251
H        1.7530342342    2.1637233709    3.2098608118
H       -0.1831510067    2.7322471468    1.6766224142
22   
Generated by ForceBalance from scan.xyz: Frame 6 of 24
C        0.0338813671    0.2587581919    1.7042653189
C       -0.1723779313   -0.5519329181   -0.6047095606
C        0.1201354612   -1.0075003443    0.8347768339
C       -0.8078904883   -2.1323310513    1.3143831996
C        1.8645188738    2.8494409607    2.4061056513
N        0.8175221394    1.2664709055    0.9718890765
N        0.8020103370    2.5972194859    1.4349989577
O        1.3902083052    1.4813962075   -1.5807102895
O       -0.9728174064    2.0074332088   -0.8056433964
S        0.2660007570    1.2229089173   -0.6824614103
H       -1.0121785918    0.5795308163    1.8445966669
H        0.4874452445    0.1004260839    2.6862876639
H        0.4075227532   -1.0811172419   -1.3613024719
H       -1.2367515049   -0.5972467997   -0.8433057807
H        1.1624368663   -1.3324930547    0.9022840338
H       -1.1009747252   -2.7879762054    0.4882755232
H       -1.7385839502   -1.7180725946    1.7188348847
H       -0.3393395244   -2.7360461455    2.0961158496
H        2.8285769774    2.6894503750    1.9190820550
H        1.7977593852    3.8972660317    2.7134511555
H        1.8121726638    2.2152509758    3.3053536326
H       -0.1221646222    2.8440815724    1.7929548973
22   
Generated by ForceBalance from scan.xyz: Frame 7 of 24
C        0.0429910380    0.2181430475    1.7033900178
C       -0.1554575603   -0.6048765266   -0.6141597093
C        0.1133739656   -1.0502791241    0.8364070536
C       -0.8427456257   -2.1495348020    1.3058789865
C        1.8820947100    2.8176815034    2.3595778165
N        0.8056421158    1.2291056117    0.9534722828
N        0.7925651625    2.5593924428    1.4203097080
O        1.2874110320    1.5061140282   -1.6117248454
O       -1.0694681511    1.9178037380   -0.7533354458
S        0.2058070585    1.1862090529   -0.6819370541
H       -1.0000956711    0.5363320975    1.8682697439
H        0.5202417194    0.0624285453    2.6743950565
H        0.4740888700   -1.1063306579   -1.3494669521
H       -1.2071019452   -0.6992425602   -0.8908340088
H        1.1454582276   -1.4059674502    0.9085425996
H       -0.9383200402   -2.9379980966    0.5523021778
H       -1.8469721794   -1.7432266000    1.4714041763
H       -0.5001564624   -2.6019341461    2.2415464371
H        2.8321789265    2.6685874500    1.8426127929
H        1.8152342015    3.8636231330    2.6732251731
H        1.8629383968    2.1793572015    3.2571848358
H       -0.1221452490    2.7951122631    1.8087881483
22   
Generated by ForceBalance from scan.xyz: Frame 8 of 24
C        0.0580000059    0.2204709394    1.7096734867
C       -0.1596469487   -0.5864545417   -0.6148117877
C        0.1155312244   -1.0408773157    0.8333731496
C       -0.8450770102   -2.1357809943    1.2979231226
C        1.8960568229    2.8197606822    2.3653148254
N        0.8093901177    1.2386036668    0.9586369339
N        0.7978712256    2.5656837594    1.4349607406
O        1.2655261817    1.5388306449   -1.6082030137
O       -1.0846292838    1.9336516313   -0.7242206089
S        0.1941222482    1.2064969106   -0.6710605564
H       -0.9829088118    0.5359740246    1.8928795066
H        0.5496212083    0.0551540761    2.6717825784
H        0.4697726748   -1.0786829959   -1.3563762892
H       -1.2113107809   -0.6823061180   -0.8905959162
H        1.1435687958   -1.4125410933    0.8793624621
H       -0.7661843397   -3.0246556088    0.6637859602
H       -1.8830968548   -1.7872934442    1.2648536718
H       -0.6214307442   -2.4383936029    2.3265586692
H        2.8413229145    2.6763188001    1.8380211029
H        1.8301001169    3.8633623069    2.6868468082
H        1.8870554639    2.1752007861    3.2586075228
H       -0.1134378214    2.7961694159    1.8344429085
22   
Generated by ForceBalance from scan.xyz: Frame 9 of 24
C        0.0621565166    0.2070563924    1.7055648136
C       -0.1827446305   -0.5871684438   -0.6202046358
C        0.1078312546   -1.0494327849    0.8253191233
C       -0.8476235211   -2.1493090180    1.2948625004
C        1.9057456675    2.8015908766    2.3584699421
N        0.8063465085    1.2284985292    0.9525491123
N        0.8002730224    2.5530620201    1.4353594437
O        1.2457289134    1.5345646051   -1.6162487902
O       -1.0962536250    1.9374760094   -0.7145366698
S        0.1793104781    1.2040376187   -0.6727350100
H       -0.9769875222    0.5214548100    1.9017011306
H        0.5632358424    0.0363865122    2.6618661772
H        0.4356375356   -1.0788460142   -1.3713375888
H       -1.2376343203   -0.6756774617   -0.8850285719
H        1.1341753590   -1.4277220331    0.8386399636
H       -0.6106471277   -3.1077468491    0.8229494105
H       -1.8903580364   -1.8954866558    1.0797841815
H       -0.7553851124   -2.2979055022    2.3770724187
H        2.8468021984    2.6590661641    1.8234505740
H        1.8437463059    3.8438998172    2.6849456446
H        1.9026223748    2.1532727866    3.2490943386
H       -0.1078020757    2.7833921832    1.8421861598
22   
Generated by ForceBalance from scan.xyz: Frame 10 of 24
C        0.0706656563    0.2166225844    1.7074133558
C       -0.1916001112   -0.5574644000   -0.6227440927
C        0.1083401165   -1.0332040693    0.8178707824
C       -0.8409384122   -2.1433331492    1.2918820062
C        1.9232220342    2.8025997843    2.3693672735
N        0.8104954732    1.2435203932    0.9583516334
N        0.8098966353    2.5638172674    1.4531323877
O        1.2291554072    1.5740064636   -1.6110556641
O       -1.1051184669    1.9680708116   -0.6859216722
S        0.1707132358    1.2342724377   -0.6618685349
H       -0.9670203253    0.5294673647    1.9136072586
H        0.5782483876    0.0363868138    2.6585489676
H        0.4223239715   -1.0418101437   -1.3823033745
H       -1.2475908967   -0.6417823783   -0.8837065978
H        1.1350474321   -1.4094647916    0.8082147997
H       -0.4637407820   -3.1338548600    1.0220145740
H       -1.8510325704   -2.0202950145    0.8908603406
H       -0.9178797372   -2.1341541508    2.3855521361
H        2.8596911350    2.6639888490    1.8253459855
H        1.8651233951    3.8419417670    2.7058553753
H        1.9266663044    2.1461345381    3.2539955812
H       -0.0945217016    2.7912645907    1.8695766841
22   
Generated by ForceBalance from scan.xyz: Frame 11 of 24
C        0.0853714110    0.2767903162    1.7250882857
C       -0.2359962676   -0.4372500332   -0.6026394784
C        0.1187218601   -0.9527120089    0.8079715899
C       -0.7917899182   -2.1011696858    1.2846617776
C        1.9474704008    2.8331899773    2.4529677196
N        0.8373983768    1.3115524255    0.9997320736
N        0.8471169505    2.6231330243    1.5144514870
O        1.3212877794    1.6093906457   -1.5618022661
O       -1.0045855527    2.1379247697   -0.6838816737
S        0.2261647887    1.3330311801   -0.6333462227
H       -0.9517093243    0.5921830150    1.9322091425
H        0.5861197684    0.0736285659    2.6754067371
H        0.2988617808   -0.9426991704   -1.4071414453
H       -1.3100811494   -0.4542222213   -0.7943650734
H        1.1548059858   -1.2988228399    0.7598120432
H       -0.2838575279   -3.0671752189    1.2216669124
H       -1.7226922887   -2.1579031647    0.7136414346
H       -1.0648502192   -1.9642163445    2.3368371916
H        2.8911709117    2.6869823569    1.9235906854
H        1.8991532968    3.8690003122    2.8017093646
H        1.9255569695    2.1658780579    3.3291976550
H       -0.0613265025    2.8597652463    1.9168269355
22   
Generated by ForceBalance from scan.xyz: Frame 12 of 24
C       -0.1605277057    0.4056010787    1.6338950704
C        0.0980075863   -0.6556511497   -0.5627968266
C        0.0972776924   -0.9459161485    0.9505389859
C       -0.9014696092   -2.0459970991    1.3704736650
C        1.4815310842    3.0993686225    2.4012715294
N        0.7555552799    1.3444430462    0.9686572708
N        0.6451615756    2.7175073554    1.2652944286
O        1.8555882182    1.2733469203   -1.4133450402
O       -0.6112713872    1.8540807570   -1.2185153829
S        0.5643504691    1.1044136931   -0.7485451293
H       -1.2142443053    0.7143811976    1.5244899588
H        0.0837293695    0.3639714914    2.6987439137
H        0.8092068531   -1.2583037411   -1.1284303013
H       -0.8981562256   -0.7351167708   -1.0012333699
H        1.1123054261   -1.2413679287    1.2289553730
H       -0.3922230608   -2.8835804603    1.8540845141
H       -1.4498554909   -2.4484419386    0.5136916934
H       -1.6443509359   -1.6606938372    2.0762084967
H        2.5257663772    2.9069229605    2.1468670725
H        1.3542736890    4.1732598995    2.5668635436
H        1.2408842450    2.5685243498    3.3360708493
H       -0.3331131643    2.9817220289    1.3930663954
22   
Generated by ForceBalance from scan.xyz: Frame 13 of 24
C       -0.1697104824    0.3782363729    1.6240220511
C        0.0646023092   -0.6868457952   -0.5757588955
C        0.0794355638   -0.9748115094    0.9363396218
C       -0.9181621167   -2.0673206567    1.3676663916
C        1.4948052299    3.0692025701    2.3605647210
N        0.7363728200    1.3159887226    0.9427730541
N        0.6333328345    2.6890258215    1.2429423202
O        1.7785932928    1.2637263184   -1.4655708307
O       -0.6893118129    1.8154859680   -1.2083342396
S        0.5063328999    1.0784341452   -0.7694390375
H       -1.2242229855    0.6883944475    1.5295322800
H        0.0906126711    0.3390208964    2.6851476262
H        0.7795615532   -1.2822909747   -1.1442428297
H       -0.9340281026   -0.7825490749   -1.0056233217
H        1.0930945336   -1.2651922445    1.2252112447
H       -0.4658205005   -2.7561423088    2.0862324373
H       -1.2311138913   -2.6770214466    0.5136767654
H       -1.8230628725   -1.6404589502    1.8105179062
H        2.5331157885    2.8772132756    2.0826680545
H        1.3712638585    4.1428253956    2.5306507973
H        1.2749753778    2.5368283832    3.2996051828
H       -0.3417950168    2.9531923135    1.3930133984
22   
Generated by ForceBalance from scan.xyz: Frame 14 of 24
C       -0.1536526645    0.3872670641    1.6387901270
C        0.0562423021   -0.6559119122   -0.5749404810
C        0.0868068354   -0.9583395999    0.9330679744
C       -0.9109317120   -2.0460456405    1.3544150798
C        1.5184665857    3.0713263267    2.3826119388
N        0.7451072727    1.3316896688    0.9562902456
N        0.6457004472    2.7017986303    1.2702523408
O        1.7620147330    1.3015583040   -1.4629044401
O       -0.7026124122    1.8530260966   -1.1756357366
S        0.4966754778    1.1108378966   -0.7557285112
H       -1.2086736802    0.6995452864    1.5596854999
H        0.1193695251    0.3369626730    2.6961802046
H        0.7639369514   -1.2461454445   -1.1576348179
H       -0.9477315326   -0.7478229508   -0.9937687568
H        1.0996393312   -1.2574991963    1.2174505623
H       -0.5619391365   -2.5763132743    2.2454149432
H       -1.0127452557   -2.8037324030    0.5695319957
H       -1.9065075924   -1.6333917649    1.5444806836
H        2.5538563677    2.8814628791    2.0925956637
H        1.3971858161    4.1433868312    2.5638356616
H        1.3077647987    2.5304214467    3.3188808202
H       -0.3277538925    2.9649984005    1.4324944477
22   
Generated by ForceBalance from scan.xyz: Frame 15 of 24
C       -0.1257977080    0.4329478030    1.6595810891
C        0.1102071640   -0.5807427586   -0.5785502566
C        0.1010356852   -0.9015764289    0.9287123079
C       -0.9292166401   -1.9699827016    1.3022276123
C        1.5618137969    3.1044331109    2.4242742557
N        0.7627397361    1.3900634906    0.9813806968
N        0.6641793292    2.7540631354    1.3253041534
O        1.7090844545    1.4665958412   -1.4654092465
O       -0.7663876653    1.9065854555   -1.0918200742
S        0.4750315194    1.2047842081   -0.7270082233
H       -1.1810296325    0.7488189678    1.6038446855
H        0.1647763937    0.3631529974    2.7110257468
H        0.8681915039   -1.1294311231   -1.1379107454
H       -0.8698437056   -0.7157852153   -1.0396762215
H        1.0995294264   -1.2385927022    1.2221960682
H       -0.7507702762   -2.3487309845    2.3137785579
H       -0.8594170190   -2.8286197031    0.6256952017
H       -1.9503922198   -1.5794166687    1.2428374320
H        2.5908745743    2.9274306012    2.1051601831
H        1.4389397336    4.1714742605    2.6320402004
H        1.3768098663    2.5415942412    3.3529704078
H       -0.3064597942    3.0063699240    1.5187388949
22   
Generated by ForceBalance from scan.xyz: Frame 16 of 24
C       -0.1460642505    0.2687049943    1.6284482833
C        0.0389192909   -0.8028228988   -0.5894740151
C        0.0663458839   -1.0822937717    0.9273957526
C       -0.9532274855   -2.1411428909    1.3478650645
C        1.5397395329    2.9709171923    2.2765507813
N        0.7164016112    1.2132430760    0.9009525609
N        0.6170790730    2.5851456829    1.2107509169
O        1.6006661733    1.2303009643   -1.5698115240
O       -0.8676311213    1.6642986968   -1.1459207918
S        0.3873506953    0.9802482844   -0.7939596815
H       -1.2047048951    0.5767152295    1.5960062036
H        0.1757091746    0.2266382169    2.6721792601
H        0.7879272489   -1.3604013417   -1.1520240071
H       -0.9500087294   -0.9560212966   -1.0251230391
H        1.0735145083   -1.4208120663    1.1884037140
H       -0.9090458839   -2.3164410908    2.4281723798
H       -0.7614357804   -3.0948475458    0.8456927182
H       -1.9719044714   -1.8259185127    1.0972095409
H        2.5616335339    2.7919231038    1.9361991159
H        1.4146225846    4.0423958667    2.4585254328
H        1.3823764327    2.4323743362    3.2245642011
H       -0.3500882153    2.8369135472    1.4214351617
22   
Generated by ForceBalance from scan.xyz: Frame 17 of 24
C       -0.1343682693    0.2747559958    1.6338530485
C        0.0323376202   -0.7802280993   -0.5944647786
C        0.0710276821   -1.0701099846    0.9227023548
C       -0.9451835612   -2.1342095503    1.3451563239
C        1.5508019833    2.9757490440    2.2858119926
N        0.7181850806    1.2266228402    0.9048752125
N        0.6186914700    2.5958327405    1.2261768181
O        1.5780438618    1.2659346693   -1.5742109852
O       -0.8873183684    1.6878991020   -1.1223296789
S        0.3734372667    1.0053725765   -0.7883548239
H       -1.1942466007    0.5802427710    1.6154259888
H        0.1985771512    0.2248014594    2.6737132119
H        0.7801818016   -1.3302683311   -1.1658805491
H       -0.9579862684   -0.9326660274   -1.0266483971
H        1.0826073091   -1.4167077536    1.1538559808
H       -1.0682191452   -2.1440141735    2.4337795922
H       -0.6422757459   -3.1332542124    1.0187069532
H       -1.9305314767   -1.9215134646    0.9159301169
H        2.5697459655    2.8018066485    1.9341849571
H        1.4249708419    4.0455188207    2.4770918036
H        1.4040016688    2.4297087076    3.2312327256
H       -0.3469593187    2.8438731137    1.4478637533
22   
Generated by ForceBalance from scan.xyz: Frame 18 of 24
C       -0.1284569547    0.2620707658    1.6324945929
C        0.0111105844   -0.7805103094   -0.6021437507
C        0.0674920019   -1.0795807870    0.9140758754
C       -0.9405983324   -2.1524931448    1.3516835634
C        1.5648942261    2.9572836666    2.2842116026
N        0.7179222754    1.2168166242    0.9009946146
N        0.6232637975    2.5843759209    1.2305440576
O        1.5580122263    1.2640072585   -1.5847205886
O       -0.9016689396    1.6942934493   -1.1105921997
S        0.3587568807    1.0047152963   -0.7902474043
H       -1.1884685223    0.5680077066    1.6259959659
H        0.2141193814    0.2055943875    2.6689247792
H        0.7494042005   -1.3302853865   -1.1861795566
H       -0.9845585422   -0.9243230123   -1.0243339727
H        1.0845924266   -1.4254773119    1.1189649123
H       -1.2413842167   -2.0039328511    2.3945500343
H       -0.5379024990   -3.1624383821    1.2398820314
H       -1.8597627262   -2.0893149621    0.7593949141
H        2.5805338683    2.7833249248    1.9231558924
H        1.4426174449    4.0263019431    2.4818810407
H        1.4250879329    2.4067818760    3.2281031200
H       -0.3401105565    2.8328209293    1.4614387362
22   
Generated by ForceBalance from scan.xyz: Frame 19 of 24
C       -0.1251436611    0.2986076965    1.6346744582
C       -0.0497005208   -0.6940905934   -0.6106864667
C        0.0683456861   -1.0292689768    0.8908049411
C       -0.9002423948   -2.1375080164    1.3482180838
C        1.5727772330    2.9720832286    2.3437208001
N        0.7300034551    1.2601315608    0.9229789397
N        0.6450995773    2.6231168738    1.2697698743
O        1.6306486330    1.2667330439   -1.5414559872
O       -0.8125376731    1.8317212031   -1.1273678409
S        0.3985602358    1.0721928834   -0.7786999155
H       -1.1842689101    0.6087650779    1.6288637772
H        0.2118996479    0.2222201287    2.6718035444
H        0.6157093301   -1.2762021107   -1.2487867256
H       -1.0764694432   -0.7627211514   -0.9736508072
H        1.1005580195   -1.3498793979    1.0566558657
H       -1.3764188575   -1.8763838159    2.2992045523
H       -0.3931509991   -3.0979551907    1.4687818608
H       -1.7128233281   -2.2800828790    0.6290509671
H        2.5922960707    2.7897664324    1.9979903945
H        1.4600330569    4.0401679522    2.5519084354
H        1.4102122965    2.4126090091    3.2786616483
H       -0.3191594177    2.8812808846    1.4859391074
22   
Generated by ForceBalance from scan.xyz: Frame 20 of 24
C       -0.2253039394    0.0708595626    1.5231115056
C       -0.2393309241   -1.0188328920   -0.6744810930
C       -0.0381499257   -1.2870256536    0.8294067616
C       -0.9569192836   -2.3939825661    1.3902160047
C        1.4616280175    2.7967824357    2.0360731253
N        0.5827145356    1.0116446786    0.7323235682
N        0.4914739643    2.3873969477    1.0227105529
O        1.3677775293    0.9174889559   -1.7703378088
O       -1.0611643797    1.4720439883   -1.2671308686
S        0.1752536697    0.7435041786   -0.9424292161
H       -1.2887514056    0.3641722453    1.5477005933
H        0.1559881290    0.0480566166    2.5475099215
H        0.3990906669   -1.6217110716   -1.3209305108
H       -1.2833550967   -1.1158291681   -0.9770366881
H        1.0088842850   -1.5645397093    0.9769983492
H       -1.6079742558   -2.0082640590    2.1813408533
H       -0.3760203913   -3.2163854161    1.8158970909
H       -1.6043337562   -2.8179664123    0.6172535586
H        2.4670613435    2.6137947066    1.6516085878
H        1.3412112670    3.8713379092    2.2024582435
H        1.3511897989    2.2770472975    3.0010840332
H       -0.4659340407    2.6410288062    1.2720929243
22   
Generated by ForceBalance from scan.xyz: Frame 21 of 24
C       -0.2095597912    0.0772354628    1.5333148584
C       -0.2473061983   -0.9888294293   -0.6746639131
C       -0.0298393544   -1.2739958448    0.8217183331
C       -0.9462377506   -2.3803673075    1.3793647911
C        1.4943629226    2.7910541740    2.0594573035
N        0.5953170764    1.0235822450    0.7453656698
N        0.5125064587    2.3962463271    1.0516614826
O        1.3525414810    0.9544819313   -1.7667831840
O       -1.0691216354    1.5109762281   -1.2310813945
S        0.1685267240    0.7753065891   -0.9278347049
H       -1.2716915805    0.3739396038    1.5673781883
H        0.1781797063    0.0444173235    2.5550697653
H        0.3824019801   -1.5866545876   -1.3342069850
H       -1.2955347457   -1.0821908944   -0.9643618935
H        1.0175443143   -1.5471014168    0.9759516582
H       -1.7716512208   -1.9595116858    1.9626011005
H       -0.3912040564   -3.0399948519    2.0530851816
H       -1.3681456672   -3.0043311532    0.5866040553
H        2.4951488839    2.6081213206    1.6630250683
H        1.3800189015    3.8642538220    2.2384099468
H        1.3914220890    2.2615589270    3.0199967821
H       -0.4413493610    2.6511229897    1.3131698020
22   
Generated by ForceBalance from scan.xyz: Frame 22 of 24
C       -0.2224968248    0.0470651400    1.5201271484
C       -0.2815610321   -1.0259668330   -0.6891279292
C       -0.0544595948   -1.3054204282    0.8068610803
C       -0.9747059121   -2.3983909280    1.3684690684
C        1.4934343387    2.7624334719    2.0072534897
N        0.5668375693    0.9928728813    0.7152616317
N        0.4889120808    2.3658920199    1.0227259202
O        1.2590767258    0.9459440838   -1.8158013152
O       -1.1560105091    1.4621832565   -1.2142808397
S        0.1006740033    0.7447235506   -0.9468517652
H       -1.2834145603    0.3443736223    1.5734443136
H        0.1851669117    0.0163061553    2.5340647298
H        0.3574930049   -1.6129677076   -1.3492609964
H       -1.3285780869   -1.1405268165   -0.9761164228
H        0.9909615046   -1.5866235144    0.9624977881
H       -1.9243728090   -1.9787734799    1.7167929017
H       -0.5092200949   -2.8803877502    2.2344472631
H       -1.1820510341   -3.1783026059    0.6300651189
H        2.4849791233    2.5821755712    1.5870991387
H        1.3808416871    3.8352370627    2.1896756609
H        1.4144599844    2.2319726039    2.9695203397
H       -0.4589404110    2.6186952772    1.3070884417
22   
Generated by ForceBalance from scan.xyz: Frame 23 of 24
C       -0.2276326251   -0.0300421350    1.5115339490
C       -0.2945075537   -1.1372974663   -0.6890109229
C       -0.0687337528   -1.3905466080    0.8147716149
C       -0.9961490373   -2.4679112230    1.3817788066
C        1.4955982281    2.6967196953    1.9218878361
N        0.5400153493    0.9089667349    0.6770784683
N        0.4629072118    2.2847037954    0.9735826757
O        1.1395714509    0.8785596001   -1.8787601329
O       -1.2666242980    1.3180513540   -1.1866433644
S        0.0223536642    0.6423615308   -0.9661369701
H       -1.2882844546    0.2645179342    1.5827069272
H        0.2006049840   -0.0433884499    2.5171953608
H        0.3753326940   -1.7068338753   -1.3335226586
H       -1.3324875831   -1.2970849432   -0.9863057683
H        0.9734749511   -1.6861910139    0.9674823497
H       -2.0197356797   -2.0918022951    1.4855469925
H       -0.6617822738   -2.7756337234    2.3783144236
H       -1.0125592711   -3.3587410301    0.7463627663
H        2.4745057844    2.5200814022    1.4716535351
H        1.3809740395    3.7701734805    2.0990680699
H        1.4514575848    2.1737089832    2.8904595919
H       -0.4770199020    2.5340363130    1.2857620107
22   
Generated by ForceBalance from scan.xyz: Frame 24 of 24
C       -0.2077629972   -0.0750916345    1.5189768446
C       -0.2927655824   -1.1848807023   -0.6874305834
C       -0.0696545313   -1.4360864006    0.8185948764
C       -1.0151487882   -2.4967490464    1.3831180001
C        1.5120772391    2.6584487680    1.8954282029
N        0.5385004637    0.8667926616    0.6699263078
N        0.4609152202    2.2422368491    0.9693399621
O        1.0838814826    0.8590030703   -1.8972488470
O       -1.3136030763    1.2565391845   -1.1521838026
S       -0.0095710604    0.6004757636   -0.9623375639
H       -1.2659443267    0.2194353400    1.6198477918
H        0.2473658630   -0.0941742863    2.5125561455
H        0.3922570392   -1.7378714557   -1.3302880165
H       -1.3247885340   -1.3645653350   -0.9936480568
H        0.9663838259   -1.7600754263    0.9552903445
H       -2.0610535553   -2.1960053057    1.2585016586
H       -0.8316266168   -2.6526977517    2.4516366066
H       -0.8771708174   -3.4573326743    0.8764750872
H        2.4818207780    2.4909314967    1.4224047727
H        1.3936080081    3.7303522763    2.0794441812
H        1.4937757002    2.1314462092    2.8626387462
H       -0.4730054224    2.4855244137    1.3036612640
