19   

C        5.6932773171    1.6990735265    0.7935230327
C        4.4442749402    1.8920242521    0.2900665360
C        5.3732873779    0.0755162514   -0.6115990430
C        4.9166906812   -1.4365495204   -2.4760919078
C        4.0966735900   -0.4280632931   -3.2747157638
C        6.6450787477   -2.0267173016   -0.8312934492
N        6.2428209801    0.5563392837    0.2389852004
N        4.2237585493    0.8636255265   -0.6134493829
N        5.6143152192   -1.1089326371   -1.3224836136
O        4.9361914834   -2.5756203117   -2.9329356719
H        6.1784193790    2.3388101932    1.5216241143
H        3.7666040241    2.6903881655    0.5699167475
H        3.9493880636   -0.7737998417   -4.3016890519
H        4.5022832922    0.5838571322   -3.2003391580
H        3.0979252624   -0.3905175825   -2.8344161077
H        6.3421511929   -2.3835050083    0.1582724289
H        7.5566677977   -1.4797470014   -0.5704661208
H        6.8445280135   -2.8758059088   -1.4926123899
H        3.3803505012    0.6736295204   -1.1416135921
19   

C        5.5840389793    1.8673844737    0.8674290360
C        4.3114200186    1.9506079016    0.3921930658
C        5.3624324283    0.1998571563   -0.5022440921
C        4.8780776198   -1.4233730131   -2.2495734966
C        4.0634817775   -0.4794998529   -3.1279053136
C        6.7439690088   -1.8383048546   -0.7034110731
N        6.2123595298    0.7646257249    0.3152761141
N        4.1524562574    0.8917624073   -0.4890135966
N        5.6782826483   -0.9723307117   -1.2065249782
O        4.7801427372   -2.6183592180   -2.5110049425
H        6.0329408976    2.5555782301    1.5744006302
H        3.5784375712    2.6974527980    0.6750150336
H        3.9995171860   -0.8815678977   -4.1427462617
H        4.4106845238    0.5557150191   -3.0838365026
H        3.0248839665   -0.5261668656   -2.7924537347
H        6.3872522138   -2.2958621220    0.2250273236
H        7.6029770556   -1.2596604756   -0.3495150249
H        7.0120624847   -2.6433210990   -1.3952123715
H        3.3157178117    0.6263268900   -0.9954882687
19   

C        5.5880754967    1.8986896283    0.8615899428
C        4.2963183490    1.9088596281    0.4314625829
C        5.4151098978    0.2256854549   -0.5053914305
C        4.8711577468   -1.4411266316   -2.1636188214
C        4.0916275381   -0.5355128715   -3.1103189167
C        6.8454348302   -1.7758578495   -0.7223722173
N        6.2609526357    0.8369400439    0.2817073660
N        4.1675642496    0.8449689292   -0.4487449370
N        5.7751718560   -0.9236080095   -1.2311708678
O        4.6331686674   -2.6415839076   -2.2340100888
H        6.0204441196    2.6096068181    1.5563133070
H        3.5314629836    2.6109926775    0.7429919352
H        4.1290006222   -0.9674671468   -4.1139723623
H        4.4181736256    0.5072942738   -3.0878840149
H        3.0262236467   -0.6391315712   -2.8911388464
H        6.4916177384   -2.2314656967    0.2083606230
H        7.7055349050   -1.1887176083   -0.3854389044
H        7.1027890462   -2.5886441528   -1.4091047551
H        3.3306946103    0.5322330824   -0.9279498868
19   

C        5.5870946560    1.8282882068    0.8926599937
C        4.2797888653    1.8748153960    0.5136309113
C        5.3471178713    0.2494919533   -0.5699617350
C        4.6429329038   -1.3052398148   -2.2444158041
C        3.9663563867   -0.3481848396   -3.2174821508
C        6.6817377785   -1.7900104779   -0.9227507967
N        6.2291421098    0.8025019934    0.2199902693
N        4.1079319812    0.8717825602   -0.4286286017
N        5.6677691131   -0.8520849436   -1.3887237520
O        4.1975095308   -2.4435198834   -2.1805191631
H        6.0512172674    2.4897101938    1.6152147431
H        3.5332735345    2.5593938819    0.8997064733
H        4.0941956079   -0.7582069023   -4.2226800044
H        4.3523803057    0.6732042026   -3.1648780691
H        2.8812998344   -0.4239775179   -3.1121548094
H        6.3178819888   -2.2430022026    0.0056005974
H        7.5904678646   -1.2710434542   -0.6017488007
H        6.8619211315   -2.5997242407   -1.6369561173
H        3.2508497685    0.5941216615   -0.8942375812
19   

C        5.6169283550    1.8367726702    0.8638769287
C        4.2928395407    1.8413250982    0.5437617002
C        5.3603596102    0.2449684055   -0.5795970216
C        4.5605545391   -1.3186584418   -2.1670368232
C        3.9586258514   -0.4345812519   -3.2497170703
C        6.6709147999   -1.7996702321   -0.9348506340
N        6.2605134514    0.8281342857    0.1667329399
N        4.1097885696    0.8295713245   -0.3870792890
N        5.6770593074   -0.8496166292   -1.4150290401
O        3.9705948559   -2.3516530787   -1.8858742668
H        6.0918067795    2.5155162644    1.5629791373
H        3.5431088038    2.5030090707    0.9620470454
H        4.2594572594   -0.8658786083   -4.2078668343
H        4.3367584981    0.5907504346   -3.2212651440
H        2.8707929955   -0.5366831393   -3.2766619696
H        6.3059060853   -2.2251384406    0.0061649568
H        7.5984491564   -1.2950079833   -0.6463080840
H        6.8198465501   -2.6290414663   -1.6332754327
H        3.2417708507    0.5186917338   -0.8105812515
19   

C        5.3806210322    1.5835998877    0.9276681704
C        4.0299340603    1.5967088270    0.7379686326
C        4.9345603535   -0.1842832973   -0.2290727010
C        4.0964539167   -1.4620856498   -2.0321278832
C        4.5362328712   -1.1923653376   -3.4620609746
C        6.3987346138   -1.8956114889   -1.1566188539
N        5.9274262069    0.4622929353    0.3233421545
N        3.7275783654    0.4660306183   -0.0070000572
N        5.0462206217   -1.3963375084   -0.9376130915
O        2.9913703967   -1.9307127146   -1.8440063064
H        5.9416766815    2.3343990975    1.4724203480
H        3.3419475904    2.3434153317    1.1174057967
H        5.1751263305   -2.0190770006   -3.7806170926
H        5.2096466913   -0.3318277039   -3.4952017876
H        3.6829485172   -1.1331774238   -4.1429746271
H        6.9322541807   -1.9997656135   -0.2059922430
H        6.9723805385   -1.1381015701   -1.7015938726
H        6.4050849648   -2.8128141288   -1.7535993742
H        2.8226124962    0.1142278137   -0.3125485808
19   

C        5.4550881535    1.6995036720    1.1007642036
C        4.1059315011    1.7455161825    0.9055064396
C        4.9817401502   -0.0178923634   -0.1203545616
C        4.0961799830   -1.3096867484   -1.9090743072
C        4.4989502419   -1.3978240454   -3.3733599301
C        6.4276697067   -1.7191963403   -1.1087751188
N        5.9839980278    0.5901964952    0.4590557035
N        3.7874324758    0.6477050270    0.1195429512
N        5.0813666212   -1.2066627918   -0.8747583365
O        2.9405227524   -1.5771159500   -1.6213254392
H        6.0275944218    2.4195139907    1.6743836537
H        3.4296305410    2.4916457475    1.3062265220
H        4.9660419630   -2.3714312694   -3.5376697710
H        5.3008384189   -0.6883705471   -3.5934026194
H        3.6306259335   -1.3241877230   -4.0336102584
H        6.9817513168   -1.8047173194   -0.1680067679
H        6.9924009417   -0.9711813127   -1.6756316564
H        6.4255662170   -2.6450791411   -1.6917062335
H        2.8808415754    0.3194775870   -0.2093528385
19   

C        5.4762394658    1.6634945844    1.2578079711
C        4.1333587977    1.7512227395    1.0371698471
C        4.9988616880    0.0445760554   -0.0923241671
C        4.1121311346   -1.2190488885   -1.9218711512
C        4.4692412847   -1.5534402695   -3.3632904616
C        6.4534869766   -1.6113396465   -1.1599799017
N        5.9985341547    0.5914419326    0.5504373622
N        3.8139292358    0.7177031522    0.1691999453
N        5.1095229229   -1.0878165116   -0.9286517277
O        2.9308420519   -1.3103564484   -1.6040316861
H        6.0491906196    2.3294600289    1.8929507014
H        3.4617001734    2.4818752402    1.4724986108
H        4.7755998493   -2.6015654610   -3.3967779101
H        5.3597650524   -1.0064342146   -3.6830617338
H        3.6050005268   -1.4444887200   -4.0240486891
H        6.9995133239   -1.7209960448   -0.2169679675
H        7.0309791456   -0.8497498683   -1.6949585718
H        6.4581838565   -2.5199460537   -1.7690057825
H        2.9123283313    0.4290212686   -0.2088972018
19   

C        5.4768833046    1.5961618249    1.3806319792
C        4.1395220045    1.7181899620    1.1460974839
C        5.0035037291    0.0884007536   -0.0974115213
C        4.1268874998   -1.1481314393   -1.9718924009
C        4.4380811266   -1.6599999660   -3.3722245424
C        6.4770264802   -1.5041357068   -1.2420987047
N        5.9979241233    0.5744103960    0.6014889598
N        3.8242153655    0.7573347135    0.1973891270
N        5.1323807022   -0.9753308119   -1.0157764821
O        2.9373507385   -1.0866521317   -1.6585741076
H        6.0472096064    2.2044449784    2.0733697166
H        3.4689290674    2.4237355021    1.6223911319
H        4.6958020779   -2.7187029887   -3.2914037744
H        5.3493082742   -1.2008598541   -3.7637044451
H        3.5697700750   -1.5767912020   -4.0314231198
H        7.0151572649   -1.6339038190   -0.2970769640
H        7.0637275836   -0.7294918367   -1.7473676930
H        6.4945897217   -2.3968260415   -1.8734012976
H        2.9287564134    0.5100644412   -0.2234086610
19   

C        5.4666569355    1.5451772387    1.4634973744
C        4.1306710245    1.6814262271    1.2318208604
C        5.0025798761    0.1387882149   -0.1175211257
C        4.1332255639   -1.0898058520   -2.0166086406
C        4.3993651659   -1.7502285095   -3.3638652879
C        6.5008452108   -1.3796601371   -1.3313142674
N        5.9923728469    0.5802812889    0.6179376362
N        3.8224089034    0.7865080402    0.2188560086
N        5.1519447675   -0.8567666889   -1.1037988212
O        2.9480130095   -0.8983332830   -1.7273491415
H        6.0332438354    2.1052925989    2.1986247344
H        3.4567878692    2.3540414318    1.7492370295
H        4.6681565956   -2.7934134740   -3.1808623168
H        5.3001732744   -1.3390511382   -3.8262718309
H        3.5157254568   -1.7247635052   -4.0073138807
H        7.0350751222   -1.5262300615   -0.3865344128
H        7.0895020561   -0.5882947075   -1.8073512264
H        6.5367338624   -2.2568965340   -1.9824227749
H        2.9318342925    0.5705356315   -0.2292733437
19   

C        5.4583999070    1.5145505337    1.5655733143
C        4.1221679356    1.6536220525    1.3392365079
C        5.0128609120    0.2138161471   -0.1109250720
C        4.1515105607   -0.9993405249   -2.0336739426
C        4.3819785204   -1.7848310215   -3.3196569266
C        6.5366497992   -1.2206283707   -1.3932946087
N        5.9957327444    0.6161391401    0.6565453006
N        3.8263452907    0.8266678029    0.2667899121
N        5.1822652391   -0.7089122115   -1.1610748494
O        2.9780470428   -0.6921054229   -1.7921698050
H        6.0175921756    2.0279838496    2.3394307379
H        3.4405034475    2.2853518489    1.8964147439
H        4.6897706134   -2.7985749189   -3.0519244333
H        5.2581647917   -1.4016128927   -3.8485418444
H        3.4814585488   -1.8242241522   -3.9385820479
H        7.0711183323   -1.3815715087   -0.4510333641
H        7.1217960758   -0.4133856112   -1.8460901213
H        6.5904637949   -2.0829468942   -2.0620444553
H        2.9414514104    0.6392050696   -0.2051383354
19   

C        5.4752872223    1.2645205901    1.7897985591
C        4.1454601597    1.4152086424    1.5378963199
C        5.0971971470    0.1444168325   -0.0302803070
C        4.2625541102   -0.9875234416   -2.0191965860
C        4.4823915992   -1.8646425009   -3.2477384363
C        6.6528724839   -1.1580562892   -1.4341765420
N        6.0497462952    0.4731553360    0.8073448420
N        3.8927713237    0.7026471318    0.3762267080
N        5.2977519809   -0.6613313039   -1.1682437690
O        3.1025830129   -0.5960474729   -1.8377541648
H        6.0050881594    1.6972367875    2.6307711556
H        3.4402189020    1.9810970733    2.1350167397
H        5.0188437834   -2.7741713837   -2.9676301001
H        5.1994886059   -1.3721387767   -3.9088084473
H        3.5461501774   -2.0731954884   -3.7726689660
H        7.4204497613   -0.7790251143   -0.7524275093
H        6.9268425457   -0.9853978656   -2.4789883789
H        6.6416359435   -2.2517025595   -1.3981838552
H        3.0257627748    0.5633131140   -0.1433823775
19   

C        5.3546168367    1.1771350641    1.8175174835
C        4.0209560822    1.3247910499    1.5816197283
C        4.9862431872    0.1951018818   -0.0800861869
C        4.1543070336   -0.9131748721   -2.0775427053
C        4.3421611807   -1.9011663469   -3.2231491063
C        6.5748888748   -0.9714767623   -1.5421659281
N        5.9389082984    0.4739210032    0.7752595801
N        3.7736952642    0.6982104634    0.3701030192
N        5.2061978404   -0.5191733798   -1.2733950754
O        3.0174366820   -0.4424698669   -1.9521385410
H        5.8802957991    1.5527556304    2.6879979021
H        3.3100929095    1.8350049686    2.2208009665
H        4.9351869066   -2.7579485596   -2.8937107018
H        4.9884559085   -1.4384869435   -3.9730285981
H        3.3885085464   -2.1805195420   -3.6792908908
H        7.3113250985   -0.2236202393   -1.2294143011
H        6.7459081536   -1.3325899715   -2.5590305497
H        6.7919552168   -1.7958263928   -0.8548403909
H        2.9084413169    0.5912866555   -0.1597990114
19   

C        5.3372458005    1.0753282094    1.8018465970
C        4.0036652225    1.2194595804    1.5612312671
C        5.0021074956    0.2158470596   -0.1582102332
C        4.1709624511   -0.8656190422   -2.1609692745
C        4.3414749982   -1.9600547672   -3.2075118426
C        6.6046469068   -0.8585524015   -1.6750581301
N        5.9431187865    0.4519743358    0.7216976776
N        3.7769182527    0.6701709220    0.3086846384
N        5.2372883385   -0.4140378111   -1.3967054875
O        3.0677007869   -0.3118116205   -2.1254978946
H        5.8481688015    1.3999591350    2.7011434649
H        3.2800000277    1.6798429952    2.2235045787
H        4.9638680068   -2.7715676161   -2.8222540958
H        4.9412758374   -1.5539771200   -4.0256228059
H        3.3788066464   -2.2877957173   -3.6091950419
H        7.3391691860   -0.1174363671   -1.3423133323
H        6.7671891915   -1.1880765949   -2.7045080275
H        6.8202306464   -1.7067843199   -1.0167190489
H        2.9196605009    0.5951126590   -0.2390953190
19   

C        5.3150381916    0.9817413079    1.8228498720
C        3.9836152001    1.1273772099    1.5688604765
C        5.0216269830    0.2491359760   -0.1919560992
C        4.1908817053   -0.8063693267   -2.1929669566
C        4.3483840456   -2.0072114285   -3.1165140130
C        6.6375840094   -0.7312806379   -1.7558737351
N        5.9466471128    0.4376616410    0.7148818797
N        3.7825387227    0.6583937526    0.2795568739
N        5.2720326134   -0.2919774950   -1.4709403050
O        3.1267624859   -0.1904223802   -2.2653429500
H        5.8068550180    1.2523781839    2.7502324241
H        3.2450088955    1.5391335590    2.2465500969
H        4.9823043033   -2.7717805834   -2.6604648399
H        4.9199332514   -1.6842887200   -3.9899328550
H        3.3794997708   -2.3725321748   -3.4675583729
H        7.3703328843    0.0046276909   -1.4080093945
H        6.7911505472   -1.0331318384   -2.7956105895
H        6.8516839438   -1.5996210366   -1.1236285852
H        2.9353205654    0.6186171733   -0.2867539051
19   

C        5.2695686322    0.8513628513    1.8372567902
C        3.9460759805    1.0214696058    1.5559362999
C        5.0321349936    0.2690784028   -0.2306364137
C        4.2096191696   -0.7350090991   -2.2420359946
C        4.3492539743   -2.0413724614   -3.0107704650
C        6.6650697485   -0.6170392890   -1.8262642028
N        5.9322862160    0.3869920407    0.7113673756
N        3.7795863298    0.6486160726    0.2304802915
N        5.3026255423   -0.1718376363   -1.5445324477
O        3.1997644851   -0.0703575430   -2.4500358144
H        5.7346794369    1.0517855372    2.7957409792
H        3.1904514299    1.3888925936    2.2404227182
H        4.9533419117   -2.7615116041   -2.4531167904
H        4.9384248968   -1.8390537505   -3.9082655876
H        3.3761932178   -2.4179199697   -3.3374939510
H        7.3986203789    0.1088486334   -1.4596167139
H        6.8161561300   -0.8906337809   -2.8745128192
H        6.8685063143   -1.5050729645   -1.2182082757
H        2.9477992275    0.6617377795   -0.3587001875
19   

C        5.2034586606    0.6960346559    1.7954617945
C        3.8914503100    0.9011105092    1.4839497916
C        5.0275299842    0.2598372261   -0.3124920045
C        4.2258887271   -0.7005713289   -2.3340042161
C        4.3333158280   -2.1166672227   -2.8792226221
C        6.6847427964   -0.5342072640   -1.9204809390
N        5.8982924407    0.3023731736    0.6621748793
N        3.7630518961    0.6220835347    0.1311670185
N        5.3228605458   -0.0853243407   -1.6489074038
O        3.2847938943   -0.0186872719   -2.7070836215
H        5.6386940822    0.8249343844    2.7799276160
H        3.1187381700    1.2319924323    2.1681298593
H        4.8241577534   -2.7700408907   -2.1533121602
H        5.0282020546   -2.1031083694   -3.7218514704
H        3.3686373725   -2.4814369299   -3.2420977522
H        7.4166688404    0.1802027895   -1.5289863686
H        6.8414037962   -0.7745597319   -2.9763022859
H        6.8744005613   -1.4443318182   -1.3412811345
H        2.9486071622    0.6917794272   -0.4768149194
19   

C        5.1706003600    0.5528123284    1.7597320512
C        3.8687491748    0.7941161385    1.4318951636
C        5.0420929564    0.2670736475   -0.3766954571
C        4.2682730954   -0.6372355837   -2.4185950805
C        4.2999980559   -2.1340548064   -2.6819195039
C        6.7241639266   -0.4222328062   -1.9982277265
N        5.8890236327    0.2318274985    0.6185295053
N        3.7695767261    0.6120792659    0.0600817053
N        5.3609683067    0.0182893626   -1.7258755264
O        3.4186085757    0.0309625802   -2.9735878693
H        5.5826201971    0.6078395911    2.7609583434
H        3.0837504621    1.0866612410    2.1196923326
H        4.6720732562   -2.6665895906   -1.8026751081
H        5.0677714319   -2.3276114913   -3.4343856656
H        3.3432987626   -2.4964832195   -3.0674227298
H        7.4501558370    0.2926137672   -1.5968441929
H        6.8798976716   -0.6402129601   -3.0593205104
H        6.9184635428   -1.3420420768   -1.4360151345
H        2.9677688307    0.7387068964   -0.5540468411
19   

C        4.9372967069    2.1303590520   -0.1062314970
C        4.7528436004    1.4230954193    1.0426409415
C        5.1177616214    0.0444428457   -0.6672679184
C        5.7124102520   -0.9309080220   -2.7453680323
C        4.7848508369   -0.2762321256   -3.7589640111
C        5.8039195976   -2.3112575829   -0.6872207152
N        5.1448347041    1.2561611633   -1.1588647820
N        4.8697055662    0.0831824553    0.7013872995
N        5.2667211792   -1.1554139043   -1.3916762686
O        6.8553095542   -1.1594481910   -3.0880408056
H        4.9193407122    3.2113498727   -0.1856869668
H        4.5488964208    1.8461644086    2.0194528362
H        4.5422013971   -1.0276136800   -4.5134531634
H        5.3380201420    0.4612061008   -4.3456248923
H        3.8637683431    0.1006477598   -3.3077004235
H        5.2358273465   -2.5355156726    0.2200379235
H        6.8075693892   -2.0545043486   -0.3301024132
H        5.9172677216   -3.1737620169   -1.3521425381
H        4.7722844386   -0.7280820362    1.3003247412
19   

C        4.8843859021    2.1400511910   -0.0517271048
C        4.7207924758    1.4589328029    1.1152565661
C        5.0646169944    0.0412093625   -0.5683748920
C        5.4870645023   -1.0393651131   -2.6408472350
C        4.5372504941   -0.2745082917   -3.5541858117
C        5.8080693169   -2.3129457756   -0.5410029407
N        5.0796209096    1.2420926224   -1.0865319564
N        4.8411436030    0.1123772456    0.8029280408
N        5.2177708303   -1.1844291132   -1.2487409941
O        6.5081482645   -1.4759734609   -3.1421967057
H        4.8613767026    3.2188557585   -0.1553855031
H        4.5278911585    1.9036608771    2.0846457534
H        4.4242427947   -0.8119323881   -4.4985701183
H        5.0523309788    0.6314539414   -3.8837049060
H        3.5930110062   -0.0203123785   -3.0662075724
H        5.3549107250   -2.4693142260    0.4417993763
H        6.8528727551   -2.0616087081   -0.3270139848
H        5.8343898660   -3.2139344114   -1.1627034952
H        4.7566005273   -0.6854884837    1.4214917287
19   

C        4.8505761926    2.1885757270   -0.0863222994
C        4.6919478929    1.5179613080    1.0868779431
C        5.1004929354    0.0890558059   -0.5739627735
C        5.4538992916   -1.0894995590   -2.6320257115
C        4.5419328965   -0.2484223171   -3.5188509111
C        5.8967871645   -2.2593889198   -0.5023780734
N        5.0876417938    1.2834608035   -1.1060767245
N        4.8595474267    0.1722958812    0.7937000507
N        5.3086192285   -1.1404011529   -1.2294830948
O        6.3332242986   -1.7188285557   -3.2004674808
H        4.7965188148    3.2647780783   -0.2041901358
H        4.4711013252    1.9688100138    2.0474173004
H        4.4058642684   -0.7270725946   -4.4915462286
H        5.0884917777    0.6636318784   -3.7721341971
H        3.6173945202    0.0422274407   -3.0138649205
H        5.5324180240   -2.3389984991    0.5253132990
H        6.9690663801   -2.0564579929   -0.4053327715
H        5.8376712737   -3.1925757863   -1.0722444748
H        4.7917880166   -0.6197312819    1.4217188847
19   

C        4.8598344467    2.0590581860   -0.1108310513
C        4.7266796705    1.4055485053    1.0744944714
C        5.1283740703   -0.0457872463   -0.5702605719
C        5.3302715215   -1.3329061938   -2.6057715207
C        4.4722821437   -0.4167789028   -3.4736706695
C        5.9154037717   -2.4055355376   -0.4669865331
N        5.0933550568    1.1403836439   -1.1191276141
N        4.9088386615    0.0580322025    0.7997399931
N        5.3461698136   -1.2820781450   -1.2054229724
O        6.0058386497   -2.1538158968   -3.2121138834
H        4.7908054654    3.1325119597   -0.2445216914
H        4.5124258688    1.8688067353    2.0305616708
H        4.2721285627   -0.8696436843   -4.4477580805
H        5.0688354511    0.4717853690   -3.6954427413
H        3.5879163346   -0.0561537722   -2.9427099368
H        5.7254029015   -2.3708383163    0.6088830810
H        7.0028468099   -2.3533105831   -0.5897505144
H        5.6675844019   -3.3627879674   -0.9373580271
H        4.8597435209   -0.7246225289    1.4410049444
19   

C        4.8018277454    2.0699153832   -0.0965172200
C        4.7283718764    1.4069075026    1.0880888698
C        5.1710860945   -0.0173801888   -0.5715104615
C        5.2698651203   -1.3650628407   -2.5941668755
C        4.4540065243   -0.4031343746   -3.4541085852
C        6.0243752181   -2.3555877557   -0.4790733935
N        5.0615508158    1.1675138069   -1.1129090643
N        4.9771590246    0.0722458748    0.8036104087
N        5.4409230143   -1.2360574258   -1.2158979676
O        5.7508643486   -2.3138429164   -3.2026253482
H        4.6738164115    3.1386654837   -0.2238549665
H        4.5084108963    1.8553068616    2.0498539617
H        4.2192484773   -0.8341153795   -4.4305049373
H        5.0658899103    0.4850779508   -3.6303305097
H        3.5865102293   -0.0204633012   -2.9111098088
H        5.9664377177   -2.2615771960    0.6083044774
H        7.0848114374   -2.4031945600   -0.7496464025
H        5.6636002891   -3.3157034334   -0.8625651475
H        4.9818777178   -0.7137835984    1.4424337264
19   

C        4.7752959644    2.0765455230   -0.0608758148
C        4.8547251747    1.4145683211    1.1232499673
C        5.3129645443    0.0337188568   -0.5690199481
C        5.3049960859   -1.3859416833   -2.5538607175
C        4.4885947647   -0.4226726761   -3.4122835593
C        6.3139384590   -2.2267870147   -0.4736198771
N        5.0466866352    1.1996951191   -1.0960806923
N        5.2152147101    0.1104407477    0.8172534859
N        5.6548370591   -1.1583545674   -1.2258278946
O        5.6045619103   -2.4281778991   -3.1261852755
H        4.5342778408    3.1271107963   -0.1741026722
H        4.6600449493    1.8439404378    2.0988776782
H        4.2211096928   -0.8597392436   -4.3775862916
H        5.0763526289    0.4852402425   -3.5684092304
H        3.6234358729   -0.0549471823   -2.8556166698
H        5.6698264639   -2.5361687601    0.3546110784
H        7.1685580627   -1.8140885103    0.0724504553
H        6.5944943389   -3.0970275386   -1.0759116393
H        5.3449475945   -0.6680374546    1.4516995280
