24   

C       -0.6266502436    1.2028809677   -0.0577434451
C        0.5635715259    0.6605188954    0.3739303750
C        1.5239331323    1.4391078584    1.2314323659
C       -1.5719742187    0.4568074193   -0.9496914806
C       -0.1021151235   -1.5102842283   -0.6668516883
C        3.6711414028    1.7676147386    2.4032454053
C        3.6130881703    0.3968788161    0.3270211285
N        0.8921958352   -0.6570094359   -0.0218197457
N       -0.8539482851   -0.6587720279   -1.5823057363
N        2.8787597364    1.0942234958    1.3782650080
O        1.1567470494    2.4617990752    1.8123676603
H       -0.8634848439    2.2256446978    0.2111902707
H       -2.4086410765    0.0769282413   -0.3542689400
H       -1.9692509449    1.1316263354   -1.7149570434
H        0.3943133307   -2.3101964783   -1.2249865216
H       -0.7686140689   -1.9526107869    0.0815566244
H        4.6112731735    1.2340833519    2.5750958998
H        3.1254836031    1.7894594352    3.3525183600
H        3.8944050069    2.7945128193    2.0967120834
H        4.6047215247    0.8432750802    0.2010448902
H        3.1076078497    0.4924985321   -0.6395132276
H        3.7341832476   -0.6611192237    0.5771702934
H        1.7502045487   -1.0796824261    0.3129339485
H       -1.4588529617   -1.2016573456   -2.1891490666
24   

C       -0.5837062476    1.1872410913   -0.0963864428
C        0.5506660577    0.6066449144    0.4227074343
C        1.4836639374    1.3522963927    1.3368038258
C       -1.5004125661    0.4544274334   -1.0285297167
C       -0.1435238219   -1.5662042104   -0.5864168028
C        3.6792718542    1.7440067529    2.3984601702
C        3.5597473359    0.4759730564    0.2530448982
N        0.8437611481   -0.7366878973    0.0991048189
N       -0.7935591986   -0.7127987060   -1.5762689125
N        2.8633409904    1.0953341816    1.3769329204
O        1.0593535571    2.2477287168    2.0704236607
H       -0.7932768927    2.2242336544    0.1379843498
H       -2.3919497519    0.1318565582   -0.4808150864
H       -1.8135855293    1.1200996405   -1.8394628392
H        0.3516742610   -2.4050533768   -1.0853425074
H       -0.8777987673   -1.9541225051    0.1279834853
H        4.6608185495    1.2647091285    2.4681728813
H        3.1998816870    1.6598230828    3.3794562812
H        3.8163591762    2.8030098035    2.1577903093
H        4.5067400880    0.9925130381    0.0667525063
H        2.9764933661    0.5554986490   -0.6701504124
H        3.7678656025   -0.5773507990    0.4623105725
H        1.6624177721   -1.1813395383    0.4995114943
H       -1.3819600159   -1.2493977559   -2.2046052704
24   

C       -0.5322689405    1.1806805361   -0.1305681491
C        0.5351287807    0.5561018168    0.4694374941
C        1.4516438287    1.2601362917    1.4344762790
C       -1.4249230755    0.4668982257   -1.1002478587
C       -0.2018482132   -1.6070999846   -0.5226981531
C        3.6835138549    1.7175068539    2.3953838899
C        3.4983037414    0.5576455112    0.1876911112
N        0.7783466581   -0.8100112868    0.2099143187
N       -0.7435632595   -0.7482227031   -1.5725872662
N        2.8433800020    1.1009215998    1.3744505937
O        0.9954407656    2.0015302817    2.3081198512
H       -0.7030590480    2.2315092346    0.0700669592
H       -2.3635225486    0.2026836329   -0.6021035311
H       -1.6538669670    1.1236003512   -1.9458920749
H        0.2827560273   -2.4808586754   -0.9693895917
H       -0.9995859036   -1.9417730870    0.1493225338
H        4.6861293684    1.2786065345    2.3833713763
H        3.2616063989    1.5493749750    3.3918176714
H        3.7645274445    2.7946332144    2.2185996929
H        4.3952362478    1.1399465439   -0.0459817438
H        2.8497264144    0.6170814934   -0.6923321753
H        3.7854298152   -0.4850953886    0.3517799964
H        1.5503663155   -1.2806969928    0.6698518204
H       -1.3170986615   -1.2725910340   -2.2246023847
24   

C       -0.3973504637    1.1799696186   -0.0983907991
C        0.5973904712    0.5102105026    0.5713560688
C        1.5252271129    1.1715821667    1.5594084122
C       -1.2848845257    0.4847779525   -1.0862919583
C       -0.2107365978   -1.6371638717   -0.3898791967
C        3.7978065247    1.7154788605    2.3807183938
C        3.5029081736    0.6642221841    0.1268932552
N        0.7736027556   -0.8744890383    0.3732151711
N       -0.6512672984   -0.7807178586   -1.4892361380
N        2.9135208136    1.1299605397    1.3793669079
O        1.0793556222    1.7413016975    2.5588715580
H       -0.5108549261    2.2455158537    0.0588796206
H       -2.2579684108    0.2880978992   -0.6243499163
H       -1.4388818766    1.1247516104   -1.9612143042
H        0.2467853272   -2.5481655043   -0.7881281821
H       -1.0587801834   -1.9093462783    0.2478716148
H        4.7995305442    1.2809026542    2.3053264072
H        3.4281781376    1.5128704562    3.3913058407
H        3.8674003394    2.7980780555    2.2361616991
H        4.3447771746    1.3052386347   -0.1530846468
H        2.7864573345    0.7082372216   -0.6996392426
H        3.8591980608   -0.3647623171    0.2323939956
H        1.4936353000   -1.3719542943    0.8868173742
H       -1.2214769835   -1.2928343303   -2.1538334848
24   

C       -0.3433199647    1.1944514489   -0.1754033223
C        0.5423535814    0.4744974475    0.5876943028
C        1.4425935155    1.0764774920    1.6407896329
C       -1.1877475494    0.5324185346   -1.2222175363
C       -0.2965348781   -1.6374325794   -0.4152788837
C        3.6977991283    1.7447591513    2.4393461755
C        3.3985933909    0.8547438964    0.1166270198
N        0.6595581958   -0.9197631946    0.4234904522
N       -0.5961481019   -0.7731918245   -1.5564049301
N        2.8178268552    1.1988964900    1.4115541302
O        0.9821644344    1.4307930642    2.7300846279
H       -0.3992513926    2.2682649830   -0.0479474775
H       -2.2037593817    0.3972314612   -0.8368283815
H       -1.2361612534    1.1645157830   -2.1148644062
H        0.1426638693   -2.5767818533   -0.7654217669
H       -1.2090544188   -1.8556503292    0.1501271942
H        4.6843632906    1.2746060519    2.3799108572
H        3.3066595605    1.5502625513    3.4431503650
H        3.8083098698    2.8252393177    2.3056647863
H        4.2101091927    1.5471306250   -0.1281851972
H        2.6642628622    0.9302749372   -0.6915596290
H        3.7956395267   -0.1646687316    0.1378602388
H        1.2884587384   -1.4485571757    1.0194398261
H       -1.1378626312   -1.2636009766   -2.2600875507
24   

C       -0.2040953544    1.2081129176   -0.2401005564
C        0.5522816298    0.4229041400    0.5941232054
C        1.4628698054    0.9444369718    1.6808367798
C       -1.0528597308    0.6019961548   -1.3168781323
C       -0.4132942043   -1.6233784160   -0.4206804747
C        3.6836176298    1.7564210001    2.4460488846
C        3.3399067270    1.0800667339    0.0567830374
N        0.5570680834   -0.9771255633    0.4585257479
N       -0.5713648826   -0.7613561483   -1.5923397714
N        2.7981004077    1.2529646424    1.4013436068
O        1.0346027847    1.0868141815    2.8307007552
H       -0.1551772886    2.2853494752   -0.1441125834
H       -2.0952515932    0.5714809017   -0.9825683668
H       -0.9967548793    1.2132693587   -2.2234026249
H       -0.0432777042   -2.6060357574   -0.7294937213
H       -1.3711330251   -1.7460228042    0.0965545801
H        4.2644598386    0.9346592435    2.8758086109
H        3.1206835088    2.2470297105    3.2465239344
H        4.3701225400    2.5011504734    2.0312979284
H        3.2136364309    1.9990259853   -0.5238384656
H        2.8529665662    0.2557438524   -0.4735699570
H        4.4059219077    0.8374133133    0.1078649597
H        1.0676037682   -1.5433998032    1.1293559210
H       -1.1196767773   -1.2167183513   -2.3142267626
24   

C       -0.0344710017    1.1982773469   -0.2747239625
C        0.6058837515    0.3650198598    0.6095581290
C        1.5434420256    0.8131615410    1.7034987796
C       -0.9245248477    0.6503371843   -1.3493825009
C       -0.5491455111   -1.5987748764   -0.3633448545
C        3.6994742158    1.7720477537    2.4647462888
C        3.3263062873    1.2684519422    0.0350056080
N        0.4682066654   -1.0294209141    0.5154659498
N       -0.5929217573   -0.7668526466   -1.5666466060
N        2.8190952913    1.2983708047    1.4029828439
O        1.1720612201    0.7613147259    2.8814887559
H        0.1317245750    2.2663205052   -0.2155498863
H       -1.9698954226    0.7469381697   -1.0374544920
H       -0.7846938959    1.2181475333   -2.2748641122
H       -0.2809882508   -2.6255458740   -0.6311587432
H       -1.5238505543   -1.6004337220    0.1366614288
H        4.2935344290    0.9427655405    2.8608435637
H        3.1242145141    2.2197810739    3.2817208906
H        4.3740663665    2.5440033054    2.0813757818
H        3.1084456185    2.2130655486   -0.4725297990
H        2.8857147280    0.4457150236   -0.5376635474
H        4.4090854350    1.1082854471    0.0374340505
H        0.8677645214   -1.6114737266    1.2463489009
H       -1.1754896094   -1.1862672914   -2.2834270015
24   

C        0.1730805682    1.0860929244   -0.3130460532
C        0.7567213743    0.2566022718    0.6147046717
C        1.7321722618    0.6823427529    1.6804015370
C       -0.7863991607    0.5533361010   -1.3346038274
C       -0.5964162557   -1.6498518594   -0.2000740122
C        3.8049111037    1.8118375621    2.4265316479
C        3.3852417147    1.4351362935   -0.0171612864
N        0.4925131938   -1.1199295279    0.6146648935
N       -0.5971426373   -0.9005028382   -1.4573251272
N        2.9265743591    1.3360475018    1.3642071818
O        1.4479138240    0.4733786721    2.8664909325
H        0.4238469044    2.1389862576   -0.3216240463
H       -1.8111284205    0.7713557563   -1.0153802520
H       -0.6129145006    1.0405061154   -2.2994686937
H       -0.4308506412   -2.7128726149   -0.4012012515
H       -1.5528137611   -1.5267646642    0.3197597937
H        4.4605576403    1.0038793772    2.7655531714
H        3.2224274401    2.1794984440    3.2777690114
H        4.4189459518    2.6439142311    2.0679363666
H        3.0759887604    2.3892030046   -0.4546017428
H        2.9909755387    0.6160029858   -0.6276113390
H        4.4767763921    1.3633134569   -0.0579506896
H        0.8302195503   -1.6689175017    1.4014293702
H       -1.2352187809   -1.3110826868   -2.1305654856
24   

C        0.2720962359    1.0026869921   -0.4147271078
C        0.7942941743    0.1715959400    0.5497278587
C        1.7845463329    0.5591953379    1.6139188715
C       -0.7394051013    0.5062054735   -1.4045737901
C       -0.7525069443   -1.6345662788   -0.1412002528
C        3.7720248446    1.7803095070    2.4345401242
C        3.3636547210    1.5665817918   -0.0274703574
N        0.3964612129   -1.1677687956    0.6274483651
N       -0.6987713365   -0.9636333754   -1.4405930651
N        2.9141320206    1.3380771400    1.3412120783
O        1.5726753823    0.1933326314    2.7781529287
H        0.5946284655    2.0339252790   -0.4706718142
H       -1.7359138443    0.8448233217   -1.1016121185
H       -0.5220439534    0.9145318947   -2.3967446181
H       -0.6954670703   -2.7187383707   -0.2796677557
H       -1.6833886539   -1.3864754361    0.3803053329
H        4.4641634653    0.9819888363    2.7196993661
H        3.1726415099    2.0617204246    3.3067610246
H        4.3470902448    2.6621383427    2.1350625470
H        2.9890094252    2.5253222573   -0.3985339027
H        3.0284909490    0.7648545081   -0.6937362955
H        4.4575875365    1.5754216550   -0.0684118228
H        0.6846318191   -1.6882115717    1.4537185912
H       -1.3825920511   -1.3484491586   -2.0833697656
24   

C        0.3791194934    0.9029118994   -0.4712702745
C        0.8691989193    0.0916738350    0.5288933241
C        1.8772197939    0.4674955574    1.5808858598
C       -0.6831487587    0.4231495990   -1.4160871008
C       -0.8406596494   -1.6197820562   -0.0106161404
C        3.7874518153    1.7632155127    2.4596530099
C        3.3736121930    1.6829044870   -0.0045055071
N        0.3620997606   -1.1978726697    0.6982819981
N       -0.7646047943   -1.0435439984   -1.3529301420
N        2.9386083157    1.3507108594    1.3472758591
O        1.7663912967   -0.0343766185    2.7085851454
H        0.7470275441    1.9129172908   -0.5864793086
H       -1.6443730366    0.8627059484   -1.1292582924
H       -0.4473261033    0.7437582692   -2.4358821167
H       -0.8746672627   -2.7118151462   -0.0751189839
H       -1.7344161431   -1.2610900210    0.5114542764
H        4.5073982772    0.9746669498    2.6999208028
H        3.1815645278    1.9761045720    3.3467248675
H        4.3313261974    2.6788131659    2.2068468694
H        2.9471928976    2.6396422355   -0.3208157136
H        3.0861098077    0.9016430181   -0.7156690894
H        4.4653161781    1.7563045559   -0.0415363202
H        0.6459252638   -1.6896085700    1.5447039771
H       -1.4912383861   -1.4131536308   -1.9563738677
24   

C        0.4532180536    0.8165096567   -0.5653865675
C        0.9112457098    0.0260376992    0.4688982998
C        1.9394109239    0.3808451097    1.5114207950
C       -0.6527033802    0.3597732560   -1.4719629864
C       -0.9458456353   -1.5710733634    0.0604661144
C        3.7736803535    1.7226952700    2.4734474133
C        3.3468055063    1.8109939921    0.0178510427
N        0.3015050358   -1.2019926460    0.7185738881
N       -0.8497268787   -1.0882845012   -1.3159395177
N        2.9311927582    1.3568703210    1.3392913684
O        1.9386489514   -0.2541581726    2.5762169747
H        0.8626101219    1.8000386552   -0.7405799668
H       -1.5737632196    0.8914268281   -1.2105328154
H       -0.4024203134    0.5945558219   -2.5115093736
H       -1.0672155989   -2.6587606759    0.0676318583
H       -1.7970115008   -1.1089419444    0.5722597026
H        4.5360066877    0.9557176259    2.6426889594
H        3.1692092953    1.8313975323    3.3801689992
H        4.2668309988    2.6826846600    2.2910547799
H        2.8495023663    2.7510189079   -0.2397924331
H        3.1293436440    1.0556664708   -0.7442903702
H        4.4293129864    1.9736800907   -0.0019745227
H        0.6013663893   -1.6923107783    1.5612627754
H       -1.6133549893   -1.4358989692   -1.8857656947
24   

C        0.5464224291    0.7128880868   -0.6609314247
C        0.9538934336   -0.0206939428    0.4376296436
C        2.0205366897    0.3049394845    1.4564972443
C       -0.6078161659    0.2737075889   -1.5156800825
C       -1.0449467194   -1.4822195039    0.1773859082
C        3.8088561152    1.6468099306    2.5005197804
C        3.2934402283    1.9810769109    0.0889480157
N        0.2337707767   -1.1556070116    0.7952473967
N       -0.9224391393   -1.1334428790   -1.2356410277
N        2.9487715893    1.3537988983    1.3570810045
O        2.1246653086   -0.4397804835    2.4431407386
H        1.0232370681    1.6352696305   -0.9480441485
H       -1.4777911713    0.9009714215   -1.2944107141
H       -0.3545072845    0.3971098010   -2.5735515293
H       -1.2518441032   -2.5517461985    0.2830241011
H       -1.8518416063   -0.9098852741    0.6478028930
H        4.6154355948    0.9097691842    2.5668319236
H        3.2302113597    1.6271466785    3.4301006025
H        4.2452556182    2.6463634573    2.4084794178
H        2.6558673258    2.8510642962   -0.0959083865
H        3.2069352253    1.2649558906   -0.7346332917
H        4.3356567891    2.3162314996    0.1016221269
H        0.5578979174   -1.6569459432    1.6229719320
H       -1.7180897315   -1.4641409500   -1.7706236735
24   

C        0.8334847501    0.5620133656   -0.6733172987
C        0.9097584525    0.2860574384    0.6754731253
C        2.1048905462    0.4530629003    1.5801136107
C       -0.3632030548    0.1558831739   -1.4783035796
C       -1.3284544109   -0.8132769315    0.5884063354
C        4.3254407879    1.3301245754    2.2064852771
C        2.9869283973    2.5088659583    0.4602530912
N       -0.1279671115   -0.3936210564    1.3070508014
N       -0.9752741293   -1.0044054263   -0.8180319025
N        3.1437012346    1.3659128678    1.3510141826
O        2.1582302384   -0.2372509251    2.6070543357
H        1.6854425123    0.9580953783   -1.2059301471
H       -1.0767553943    0.9843330418   -1.5322660624
H       -0.0528850558   -0.1095823174   -2.4943181173
H       -1.7005441330   -1.7547059410    1.0049781900
H       -2.1088172083   -0.0511794665    0.6845252373
H        5.1625433309    1.8462109213    1.7259110891
H        4.6377497392    0.2957504176    2.3853329636
H        4.1133461003    1.8099254074    3.1670598694
H        1.9342146641    2.7951203526    0.3695091563
H        3.3956566524    2.2838004832   -0.5295176490
H        3.5154647360    3.3778078177    0.8655842685
H        0.1235028954   -0.8489730693    2.1852825139
H       -1.7502536632   -1.3891920180   -1.3474260699
24   

C        0.8935941624    0.4489224571   -0.7228436600
C        0.9511232026    0.2225589343    0.6341303995
C        2.1611559364    0.3669378195    1.5172742123
C       -0.3310867271    0.0995249003   -1.5118654415
C       -1.3788166233   -0.6606569791    0.6061637881
C        4.3376969420    1.3459886741    2.1538836064
C        2.8691959241    2.5425452783    0.5200265389
N       -0.1422757083   -0.3260517206    1.3089877850
N       -1.0479762036   -0.9590237201   -0.7875633941
N        3.1267160858    1.3653764618    1.3407924874
O        2.3074322175   -0.4429251178    2.4420687848
H        1.7780775762    0.7673724816   -1.2572802772
H       -0.9679720806    0.9827318429   -1.6240910317
H       -0.0411280002   -0.2550265471   -2.5065139803
H       -1.8426157075   -1.5375925613    1.0688683567
H       -2.0799417980    0.1786950452    0.6599609528
H        5.1258566230    1.9399344945    1.6805450312
H        4.7155710335    0.3231919098    2.2563607680
H        4.1327844301    1.7521145181    3.1492919536
H        1.7961447991    2.7477302585    0.4498629517
H        3.2814643024    2.4075896712   -0.4845065106
H        3.3308080027    3.4257626874    0.9733100538
H        0.0849798149   -0.8132431188    2.1757267872
H       -1.8547589374   -1.3018663952   -1.2979778036
24   

C        0.9797507980    0.3174164917   -0.7805951969
C        1.0312674614    0.1366857259    0.5817427391
C        2.2574305897    0.2582687243    1.4441232181
C       -0.2747923991    0.0331957950   -1.5485837984
C       -1.3723110408   -0.5107316150    0.6139720754
C        4.3775263400    1.3338324276    2.1237052007
C        2.7952409898    2.5384552789    0.5995584295
N       -0.1018706154   -0.2755722777    1.2970648927
N       -1.0852864370   -0.9098370756   -0.7644686672
N        3.1454335357    1.3342140616    1.3433441943
O        2.4973590552   -0.6518936649    2.2471732873
H        1.8839909506    0.5607818948   -1.3229211651
H       -0.8283626817    0.9626992401   -1.7153198340
H       -0.0218583203   -0.4050769380   -2.5197069110
H       -1.9223974056   -1.3104779552    1.1199377736
H       -1.9810508370    0.3993275884    0.6288779177
H        5.1224320027    1.9885197735    1.6605828304
H        4.8083378526    0.3279165550    2.1662784474
H        4.1806190161    1.6808256999    3.1427683514
H        1.7097112250    2.6714061001    0.5497040614
H        3.2008324384    2.4925261758   -0.4156493634
H        3.2000071960    3.4226000715    1.1025132204
H        0.0876816758   -0.7793431784    2.1621958047
H       -1.9251029788   -1.2006813557   -1.2534785455
24   

C        1.0326979663    0.1739987493   -0.8623511881
C        1.0902957799    0.0597069192    0.5055315142
C        2.3387490393    0.1581812290    1.3406767982
C       -0.2528331229   -0.0441051441   -1.6001943996
C       -1.3641459672   -0.3375681627    0.6055268322
C        4.3864575239    1.3247523902    2.0963520513
C        2.6942007859    2.5325037132    0.6936660889
N       -0.0654517282   -0.2028933676    1.2626962066
N       -1.1415945262   -0.8479017383   -0.7478547608
N        3.1395250795    1.3037761994    1.3404767345
O        2.6758889284   -0.8240829976    2.0115199263
H        1.9465388833    0.3253892204   -1.4223881080
H       -0.7175702629    0.9200619315   -1.8296606761
H       -0.0544185344   -0.5709135465   -2.5394728141
H       -1.9903428714   -1.0408171934    1.1636408618
H       -1.8704033701    0.6327235145    0.5698910406
H        5.0809771044    2.0521597883    1.6645308815
H        4.8774947060    0.3464892167    2.0646333689
H        4.1918965057    1.5919733606    3.1396016940
H        1.6016119422    2.5868721037    0.6515945895
H        3.0961487053    2.5960307546   -0.3220497634
H        3.0331526099    3.4026401997    1.2649306079
H        0.0811677295   -0.6942488270    2.1419720634
H       -2.0135734749   -1.0835155941   -1.2095963356
24   

C        1.1136451088    0.0014405573   -0.9282065625
C        1.2061771978   -0.0042587318    0.4414424750
C        2.4897199671    0.0856591881    1.2286670509
C       -0.2072578448   -0.1758953870   -1.6125720030
C       -1.2684329770   -0.1804057885    0.6379345239
C        4.4378170805    1.3493109640    2.0934388006
C        2.6200310798    2.5371458658    0.8384354700
N        0.0569163519   -0.1177305528    1.2513642886
N       -1.1346532385   -0.8210353497   -0.6706709256
N        3.1788055457    1.2945581756    1.3593369611
O        2.9405758024   -0.9359865549    1.7568533046
H        2.0185199856    0.0445193039   -1.5208629348
H       -0.5982545435    0.7991542677   -1.9204553684
H       -0.0805768439   -0.7998704304   -2.5034738931
H       -1.9406194195   -0.7714175413    1.2680261345
H       -1.6822528684    0.8277361099    0.5306359555
H        5.0696224482    2.1535710937    1.7036864239
H        4.9971782531    0.4144106607    1.9839695217
H        4.2476543336    1.5273742141    3.1563138418
H        1.5274632953    2.4961258292    0.7865059559
H        3.0172319051    2.7435322668   -0.1600317453
H        2.8740370756    3.3702865568    1.5014099789
H        0.1820310468   -0.5584252445    2.1593072073
H       -2.0377881642   -1.0163262975   -1.0893935436
24   

C        1.1200977323   -0.1969915549   -1.0062756374
C        1.2612317145   -0.0472146695    0.3506390832
C        2.5810579282    0.0450680418    1.0808868911
C       -0.2320817083   -0.3628221456   -1.6296002891
C       -1.2123757822   -0.0390133979    0.6343244658
C        4.4337962002    1.3723163813    2.0675423163
C        2.4900142548    2.5251148512    0.9746055256
N        0.1335388426   -0.0175343011    1.2036228181
N       -1.1693961527   -0.8287600089   -0.5960480271
N        3.1519332322    1.2875419144    1.3745025840
O        3.1457933313   -0.9871518958    1.4546248944
H        2.0050896904   -0.2781211314   -1.6246307497
H       -0.5683091357    0.5948547552   -2.0400165577
H       -0.1762390607   -1.0919558493   -2.4446129792
H       -1.9073739496   -0.5009351727    1.3426226333
H       -1.5497842343    0.9814664177    0.4245087846
H        5.0183599530    2.2160884796    1.6881764168
H        5.0329143302    0.4695640610    1.9108948491
H        4.2713499459    1.5047002340    3.1416220247
H        1.9200816688    2.3959438656    0.0495942778
H        3.2277536354    3.3113915687    0.7873129821
H        1.8112536115    2.8599325912    1.7653263805
H        0.2549917348   -0.3707455784    2.1487032211
H       -2.0978411842   -1.0000811865   -0.9672545416
24   

C        1.1355443896   -0.3691459875   -1.0444360573
C        1.3283708612   -0.0800351267    0.2831999303
C        2.6825793926    0.0264942361    0.9474206146
C       -0.2403055539   -0.5430205738   -1.6107633339
C       -1.1359788988    0.0540861952    0.6307826848
C        4.4293025309    1.3674851258    2.1090122984
C        2.3915011914    2.4829536231    1.1720576568
N        0.2256671295    0.0643175537    1.1612096890
N       -1.1644503325   -0.8587305628   -0.5108149758
N        3.1519594442    1.2611123897    1.4104998549
O        3.3604047149   -0.9866916971    1.1418565748
H        1.9973431075   -0.5494486118   -1.6748096787
H       -0.5506892241    0.3803337670   -2.1106788581
H       -0.2374701925   -1.3539386265   -2.3465062559
H       -1.8314613482   -0.2972060803    1.3995039564
H       -1.4297463304    1.0636140820    0.3243381447
H        5.2006824601    1.7406435856    1.4284781784
H        4.7546476410    0.4021782098    2.5094828297
H        4.3364530955    2.0534555196    2.9567450048
H        1.8590375424    2.4392860160    0.2166359780
H        3.0633313363    3.3457922315    1.1255448508
H        1.6676108327    2.6416333531    1.9774292136
H        0.3583845423   -0.1945479465    2.1343156395
H       -2.1100566420   -1.0222308026   -0.8398609796
24   

C        1.3040201010   -0.4825895632   -1.0204414898
C        1.5110209859   -0.0723983829    0.2735759628
C        2.8831141389    0.1112131348    0.8796423121
C       -0.0723306929   -0.7423634329   -1.5508560325
C       -0.9562264301    0.0205812060    0.6404283749
C        4.5438941151    1.4398291150    2.1533257502
C        2.4012426660    2.4992723942    1.4039653179
N        0.4105884925    0.1039490798    1.1504319728
N       -0.9742412694   -0.9885790331   -0.4159058729
N        3.2452414448    1.3127753053    1.5010485529
O        3.6976910643   -0.8163375132    0.8703464555
H        2.1625818346   -0.6941685281   -1.6459835408
H       -0.4144699142    0.1263561227   -2.1228685404
H       -0.0543607442   -1.6122463997   -2.2155821052
H       -1.6359503423   -0.2770086361    1.4450567808
H       -1.2748125325    0.9931905865    0.2506237675
H        5.3105012271    1.7081105183    1.4198821431
H        4.8293720106    0.5020755088    2.6412408692
H        4.5060177043    2.2115233806    2.9285843082
H        1.7786504278    2.4743101874    0.5040020110
H        3.0210529104    3.3988471287    1.3355110823
H        1.7543043263    2.5792539232    2.2827806227
H        0.5588686707   -0.0575261521    2.1417200819
H       -1.9188614044   -1.2016138568   -0.7183431611
24   

C       -0.1382186728    0.5984086220    0.7060453980
C        1.2057588728    0.4101298231    0.4873261585
C        2.2644390786    1.1339570470    1.2817625756
C       -1.1796814264   -0.0537905270   -0.1498327706
C        0.6628397618   -1.2099735649   -1.3377064961
C        4.4728964688    1.2747247808    2.3846712826
C        3.5696083645   -0.9547159243    1.6978541173
N        1.6310827222   -0.4164764492   -0.5841634116
N       -0.5664903146   -0.4279859171   -1.4321503511
N        3.4385207446    0.4987374984    1.7092150959
O        2.1146075007    2.3249142941    1.5702844548
H       -0.4482941542    1.2969396440    1.4740249012
H       -1.5657811058   -0.9438043463    0.3578595997
H       -2.0099630812    0.6405358554   -0.3154420994
H        1.0484387656   -1.4125476747   -2.3418347886
H        0.4770956549   -2.1630379066   -0.8311279142
H        4.1751220192    1.4842468776    3.4168524556
H        4.6439606093    2.2219860873    1.8625224445
H        5.4204082902    0.7268614664    2.3920839347
H        4.0731652745   -1.2938599129    2.6086247065
H        4.1495364824   -1.2795998512    0.8290075196
H        2.5912271709   -1.4449164295    1.6801263905
H        2.5207868164   -0.2079460236   -1.0257868069
H       -1.2364416312   -0.8528148722   -2.0644719742
24   

C       -0.2053400969    0.6207354340    0.5678596042
C        1.1394761991    0.3586140981    0.4373379877
C        2.1743083608    1.0792362928    1.2626124855
C       -1.2345237493   -0.0312332645   -0.3027264178
C        0.5982900210   -1.3615618278   -1.2988906343
C        4.4187845677    1.3409713462    2.2606524843
C        3.6502727760   -0.9222986877    1.5394075831
N        1.5679688609   -0.5630823864   -0.5527018493
N       -0.5758969503   -0.5239752439   -1.5201664142
N        3.4184367355    0.5175259118    1.5889161632
O        1.9348004482    2.2105146512    1.6951487951
H       -0.5234836655    1.3748945555    1.2780513563
H       -1.6978811767   -0.8625262698    0.2387707875
H       -2.0135430162    0.6937509854   -0.5604310509
H        1.0242225317   -1.6608351131   -2.2617013767
H        0.3318398860   -2.2614188598   -0.7343091155
H        4.1471836119    1.4854716101    3.3111013215
H        4.4971391551    2.3190026419    1.7741805214
H        5.4042827012    0.8675247768    2.2094317835
H        4.2505209693   -1.2367747921    2.3990576732
H        4.1780765659   -1.1951083812    0.6209178748
H        2.7092174990   -1.4782145895    1.5973523211
H        2.4872434081   -0.4312314201   -0.9613764243
H       -1.2343720680   -0.9584192216   -2.1579924220
24   

C       -0.2087957631    0.7010933460    0.5528136045
C        1.1217869391    0.3453356131    0.5089160721
C        2.1446417033    1.0133686579    1.3920490474
C       -1.2333244122    0.0956849878   -0.3560486098
C        0.5418500560   -1.4087657300   -1.1845689701
C        4.4113164866    1.3430211589    2.3127807232
C        3.7584600424   -0.9056689964    1.4619615061
N        1.5279672549   -0.6479666741   -0.4211244648
N       -0.5465451076   -0.4949246701   -1.5122494715
N        3.4381018966    0.5096972368    1.6124576513
O        1.8489117084    2.0521185234    1.9901319308
H       -0.5180816070    1.4922473572    1.2258017660
H       -1.7919324865   -0.6748513711    0.1854547409
H       -1.9362746592    0.8673848807   -0.6865381285
H        0.9952394954   -1.7878247089   -2.1058351645
H        0.1744224096   -2.2558031325   -0.5954532765
H        4.1788026881    1.3810120695    3.3817371085
H        4.4014016320    2.3610580290    1.9090948565
H        5.4232297774    0.9470290008    2.1816130165
H        4.4506926280   -1.2213233716    2.2490204939
H        4.2228503796   -1.0946670619    0.4897607050
H        2.8638699587   -1.5266755343    1.5713876334
H        2.4700037999   -0.5931419479   -0.7927405425
H       -1.2000091700   -0.9076166297   -2.1694037503
24   

C       -0.1970211422    0.7507448543    0.4813341559
C        1.1042245176    0.2970928691    0.5409100342
C        2.1042574706    0.9249758844    1.4829106116
C       -1.2104756440    0.1805015435   -0.4623431768
C        0.4715609458   -1.5172901435   -1.0725699313
C        4.3610127893    1.3475591203    2.3893575044
C        3.8835273025   -0.8491309160    1.3236088084
N        1.4769265405   -0.7813416147   -0.3107451806
N       -0.5091222811   -0.5412806997   -1.5316782697
N        3.4395214651    0.5056948103    1.6300613099
O        1.7487609024    1.8587199194    2.2082778835
H       -0.4903724019    1.5898010814    1.1013615071
H       -1.8716842160   -0.5014946336    0.0823788338
H       -1.8169756563    0.9880414088   -0.8853167022
H        0.9388803376   -2.0051460838   -1.9337000056
H       -0.0010261472   -2.2805025605   -0.4450393262
H        4.1633298118    1.2551635153    3.4619888965
H        4.2492456684    2.3966011730    2.0951135106
H        5.3987137260    1.0611869652    2.1914842331
H        4.6862702945   -1.1470914761    2.0056434961
H        4.2587456678   -0.9103471439    0.2979364199
H        3.0742461041   -1.5705152137    1.4728285741
H        2.4314866999   -0.8105837300   -0.6494971471
H       -1.1566293461   -0.9448637992   -2.2003216115
