21   
Generated by ForceBalance from scan.xyz: Frame 1 of 24
C        7.4640227040   -1.6161886969   -0.1806421203
C        6.5178346907   -2.4279142314    0.4522372572
C        7.0272866604   -0.4893325225   -0.8849605145
C        5.1522634432   -2.1362166869    0.3960380195
C        5.6675359894   -0.1875573577   -0.9566076459
C        4.7179110669   -1.0079828214   -0.3207948022
C        2.2389477865   -1.3532889700   -0.0418862752
C       -0.1776852062   -1.5890806155   -0.3403813099
N        3.3620565621   -0.6379716742   -0.4411810298
N        1.0634835402   -0.8637992713   -0.5979099960
O        2.2583304340   -2.2949580709    0.7457653254
H        8.5225322555   -1.8541634409   -0.1239875628
H        6.8426009716   -3.3040766597    1.0080109366
H        7.7443887961    0.1579467718   -1.3833430432
H        4.4269711874   -2.7603597067    0.8998666686
H        5.3380194983    0.6898871500   -1.5111976464
H       -0.2100770935   -2.5619189508   -0.8467677889
H       -1.0177264887   -0.9760109314   -0.6763589199
H       -0.2720552245   -1.7618062108    0.7321694771
H        3.1954047757    0.2082729968   -0.9700279398
H        1.1408228487   -0.4396894492   -1.5140219275
21   
Generated by ForceBalance from scan.xyz: Frame 2 of 24
C        7.4283964710   -1.6672392646   -0.2709723643
C        6.4968902091   -2.4342173592    0.4357421751
C        6.9910194353   -0.5247116722   -0.9489102161
C        5.1457179947   -2.0805468008    0.4782398772
C        5.6436020440   -0.1636473205   -0.9251749819
C        4.7092347919   -0.9401446584   -0.2171379287
C        2.2416428002   -1.2905848081    0.0636312641
C       -0.1277594730   -1.6425520674   -0.4428629501
N        3.3624657006   -0.5120944997   -0.2273756356
N        1.1061724234   -0.8824780552   -0.6191209819
O        2.2381814694   -2.2193405245    0.8660047382
H        8.4769101019   -1.9510602317   -0.2898372651
H        6.8232706544   -3.3207687014    0.9738008077
H        7.6976522486    0.0882803658   -1.5025467772
H        4.4319575059   -2.6676296185    1.0407930760
H        5.3128508241    0.7249380829   -1.4609852685
H       -0.0854204816   -2.6278604535   -0.9233736052
H       -0.9579020658   -1.0685492881   -0.8621878691
H       -0.3027081197   -1.7924893115    0.6230608263
H        3.1918543314    0.3073288774   -0.7969457374
H        1.2470367320   -0.4671892380   -1.5311881966
21   
Generated by ForceBalance from scan.xyz: Frame 3 of 24
C        7.3689076468   -1.7174497321   -0.3695168430
C        6.4556181867   -2.4497577478    0.3959882027
C        6.9352241079   -0.5533403807   -1.0117350356
C        5.1271752304   -2.0386935569    0.5308560257
C        5.6079528183   -0.1368800397   -0.8971055659
C        4.6921014482   -0.8787357843   -0.1316631376
C        2.2406887047   -1.2155219873    0.1805302417
C       -0.0539847431   -1.6949408127   -0.5358110380
N        3.3618143684   -0.3996146368   -0.0385332086
N        1.1735311944   -0.9130287452   -0.6440759743
O        2.1971249914   -2.0956653560    1.0335495161
H        8.4011115980   -2.0441118478   -0.4596895246
H        6.7803291950   -3.3517866018    0.9087172015
H        7.6284180744    0.0334420708   -1.6090719224
H        4.4291088402   -2.5968858663    1.1418029904
H        5.2796046018    0.7682852623   -1.4059179246
H        0.0564575978   -2.7027126248   -0.9544958064
H       -0.8567379810   -1.1692981753   -1.0589831967
H       -0.3197469259   -1.7924505493    0.5174368484
H        3.1860992405    0.3988485103   -0.6373801178
H        1.3877713763   -0.5255548999   -1.5535875181
21   
Generated by ForceBalance from scan.xyz: Frame 4 of 24
C        7.2751575223   -1.7740465035   -0.4615265414
C        6.3786422323   -2.4759388592    0.3515681593
C        6.8561546604   -0.5835975151   -1.0635313196
C        5.0815734554   -2.0066318919    0.5715357403
C        5.5577401335   -0.1097393186   -0.8644835236
C        4.6593452173   -0.8208904886   -0.0518721203
C        2.2301015028   -1.1331137029    0.3061949093
C        0.0478865232   -1.7655944143   -0.6212686255
N        3.3554542271   -0.2919223812    0.1404326800
N        1.2600979475   -0.9538391982   -0.6558056376
O        2.1271109478   -1.9420016105    1.2204173508
H        8.2842302632   -2.1447256044   -0.6184207590
H        6.6934102852   -3.3977539747    0.8344149827
H        7.5378745402   -0.0204282219   -1.6958306185
H        4.3977981780   -2.5404530657    1.2208122704
H        5.2399767641    0.8160191338   -1.3419061134
H        0.2321705190   -2.7960200133   -0.9481983672
H       -0.7061294760   -1.3078938491   -1.2664382605
H       -0.3285614378   -1.7957594189    0.4019601663
H        3.1710191724    0.4920429777   -0.4766772969
H        1.5560878107   -0.6013186844   -1.5563207967
21   
Generated by ForceBalance from scan.xyz: Frame 5 of 24
C        7.0508975063   -1.6508619614   -0.1292920172
C        6.0441286116   -2.6214140193   -0.1438728915
C        6.7160035713   -0.3224320494   -0.4126492400
C        4.7227260325   -2.2790377068   -0.4398287392
C        5.3977664603    0.0299029826   -0.7070028244
C        4.3876265864   -0.9451457462   -0.7232305610
C        1.9787458674   -1.3083281553   -0.4647383547
C        0.2844547359   -3.0303368478   -0.9554129230
N        3.0625263831   -0.5708566263   -1.0893201416
N        1.4128595044   -2.1907421483   -1.3292181741
O        1.5975059653   -1.1123729332    0.6813097147
H        8.0764955770   -1.9233454806    0.1028801317
H        6.2852673049   -3.6575642657    0.0802395530
H        7.4831336932    0.4477661878   -0.4017123580
H        3.9526620105   -3.0449639086   -0.4416292956
H        5.1474431699    1.0661720822   -0.9258109733
H        0.3202906182   -3.9648232917   -1.5211188473
H       -0.6719651845   -2.5299702598   -1.1480130571
H        0.3478937077   -3.2509228515    0.1112039589
H        2.9185576841    0.4100599823   -0.8587621677
H        1.7442865574   -2.1694331801   -2.2841062805
21   
Generated by ForceBalance from scan.xyz: Frame 6 of 24
C        7.0244075459   -1.7010482032   -0.1976612093
C        5.9926023613   -2.6440294144   -0.1972153513
C        6.7158634876   -0.3595534773   -0.4493992492
C        4.6709653992   -2.2635622324   -0.4462953562
C        5.4000014870    0.0308905486   -0.6998567759
C        4.3630341543   -0.9171471287   -0.6984264898
C        1.9254479379   -1.2171356173   -0.4660991175
C        0.3853040292   -3.0737548258   -0.9783194343
N        3.0406513648   -0.4807330153   -1.0044713457
N        1.5190031976   -2.2176307747   -1.2944495412
O        1.3715374007   -0.9157034069    0.5838409100
H        8.0490142141   -2.0039060959   -0.0017145811
H        6.2123458517   -3.6896770226    0.0036245555
H        7.5027013304    0.3905328165   -0.4506254899
H        3.8827605334   -3.0095584060   -0.4322059392
H        5.1706613876    1.0759349480   -0.8983866240
H        0.5314426766   -4.0576502722   -1.4317087521
H       -0.5582404645   -2.6475445097   -1.3396829721
H        0.3190174766   -3.1823677118    0.1050886519
H        2.9264950851    0.4813325993   -0.6937486234
H        1.9357695512   -2.2474553598   -2.2150654781
21   
Generated by ForceBalance from scan.xyz: Frame 7 of 24
C        7.0257155498   -1.7218418007   -0.2728780630
C        5.9807949619   -2.6465860378   -0.2002844614
C        6.7241042552   -0.3781808622   -0.5231259933
C        4.6517844369   -2.2481454595   -0.3746132461
C        5.4029241474    0.0296889676   -0.7048932974
C        4.3512533354   -0.9002636148   -0.6279863847
C        1.8782571290   -1.1620740467   -0.4287541494
C        0.4321459887   -3.0678680598   -1.0128201289
N        3.0265384788   -0.4242187638   -0.8460316720
N        1.6096909536   -2.2383475145   -1.2234974309
O        1.1671409800   -0.7960243502    0.5009716754
H        8.0550981409   -2.0396245486   -0.1339506163
H        6.1948323473   -3.6931185570    0.0020923024
H        7.5211229131    0.3587327079   -0.5812964577
H        3.8552359633   -2.9801686192   -0.2977707290
H        5.1784369874    1.0744759329   -0.9094437827
H        0.6148079670   -4.0669822557   -1.4169187418
H       -0.4584893988   -2.6424736340   -1.4910994510
H        0.2407045406   -3.1432839104    0.0583960949
H        2.9248642674    0.5155110304   -0.4720015895
H        2.1126014859   -2.3016428359   -2.0984794346
21   
Generated by ForceBalance from scan.xyz: Frame 8 of 24
C        7.0035696722   -1.7298358765   -0.3532259915
C        5.9659004286   -2.6487121387   -0.1777646780
C        6.6869643273   -0.3927660334   -0.6202059905
C        4.6278073900   -2.2512264921   -0.2646630557
C        5.3565707929    0.0124795653   -0.7213592430
C        4.3114608655   -0.9108657289   -0.5391948974
C        1.8109877730   -1.1683458260   -0.3704866974
C        0.4376622144   -3.0849582014   -1.0612071160
N        2.9802993418   -0.4240902267   -0.6557425386
N        1.6606837617   -2.2970282166   -1.1299308038
O        0.9733781223   -0.7670270117    0.4327957916
H        8.0399039981   -2.0471350096   -0.2804609207
H        6.1930134548   -3.6890956106    0.0412862414
H        7.4787396349    0.3389800492   -0.7589428593
H        3.8382035813   -2.9759136763   -0.1013592981
H        5.1176419004    1.0497332569   -0.9458412753
H        0.6384168602   -4.0928790721   -1.4333886668
H       -0.3743125201   -2.6376175407   -1.6477116808
H        0.1130716732   -3.1452050293   -0.0216909864
H        2.8745376879    0.4944612478   -0.2357577358
H        2.2478197299   -2.3821875812   -1.9493134872
21   
Generated by ForceBalance from scan.xyz: Frame 9 of 24
C        6.9485372434   -1.7138303096   -0.4111553998
C        5.9441574505   -2.6509198016   -0.1556813439
C        6.5882147502   -0.3907120117   -0.6918716061
C        4.5950750778   -2.2830659238   -0.1757360833
C        5.2451853157   -0.0174125374   -0.7320417497
C        4.2328416577   -0.9581277704   -0.4703389259
C        1.7169316837   -1.2643290616   -0.3782362141
C        0.4603538587   -3.2022160139   -1.1988335122
N        2.8899996101   -0.5017411993   -0.5098267646
N        1.6940520970   -2.4327184812   -1.0970377912
O        0.7645639997   -0.8531704708    0.2814095022
H        7.9943128278   -2.0068439755   -0.3887623808
H        6.2069955389   -3.6796674704    0.0778232991
H        7.3548640407    0.3533931796   -0.8921297092
H        3.8318506897   -3.0169060974    0.0568699325
H        4.9692817996    1.0069483492   -0.9718773552
H        0.6981365961   -4.2087715021   -1.5520637583
H       -0.2622709746   -2.7391590715   -1.8821772934
H        0.0001204513   -3.2691620057   -0.2123203701
H        2.7476908653    0.4031412840   -0.0737723592
H        2.3797244898   -2.5335685206   -1.8344757281
21   
Generated by ForceBalance from scan.xyz: Frame 10 of 24
C        6.9565697692   -1.7324456769   -0.5016957536
C        5.9682013060   -2.6565463608   -0.1512530056
C        6.5850609399   -0.4135889420   -0.7863817399
C        4.6239841655   -2.2794303085   -0.0796163095
C        5.2441434350   -0.0317709245   -0.7397009835
C        4.2490466979   -0.9594954812   -0.3839741915
C        1.7181299256   -1.2293998923   -0.3181833190
C        0.4926086309   -3.1370260220   -1.2367814299
N        2.9114118843   -0.5009681775   -0.3217202005
N        1.7433830088   -2.4273881395   -0.9932050775
O        0.7100310081   -0.7780482499    0.2232581147
H        7.9995578503   -2.0326470694   -0.5478450840
H        6.2427371853   -3.6805825603    0.0891535766
H        7.3397280968    0.3195427589   -1.0592720533
H        3.8743538371   -2.9983156437    0.2316165659
H        4.9563319653    0.9878947228   -0.9850064112
H        0.7216488139   -4.1620580479   -1.5392105358
H       -0.1156598515   -2.6566815761   -2.0134184070
H       -0.0889397203   -3.1582452629   -0.3146208465
H        2.7735426117    0.4125578088    0.0945397306
H        2.4919500301   -2.5605525999   -1.6617876620
21   
Generated by ForceBalance from scan.xyz: Frame 11 of 24
C        6.8947240700   -0.8774550278    0.3551361246
C        6.0275376267   -1.6611862206    1.1232254274
C        6.4236523663   -0.2931425999   -0.8255171413
C        4.7049140723   -1.8643210516    0.7209706154
C        5.0958073959   -0.4678045597   -1.2206843947
C        4.2218698447   -1.2499238582   -0.4475851828
C        1.7045419356   -1.1831173787   -0.1882003448
C        0.6465170890   -0.5175266762    1.9076297440
N        2.8908108279   -1.4523055010   -0.8845710402
N        1.8199930532   -0.9655768415    1.1644345360
O        0.6268491833   -1.1983191892   -0.7815879254
H        7.9253435913   -0.7321672493    0.6664037247
H        6.3871020580   -2.1403434314    2.0302348425
H        7.0877393488    0.3131975033   -1.4360001236
H        4.0532039630   -2.5211683265    1.2889164665
H        4.7274883556    0.0080149678   -2.1267561875
H        0.3719588626    0.5185947565    1.6736139477
H        0.8565695493   -0.6031227017    2.9767366576
H       -0.1997445739   -1.1582961568    1.6579841229
H        2.7297839972   -1.3765778222   -1.8821648471
H        2.7235175943   -0.6647557723    1.5079334234
21   
Generated by ForceBalance from scan.xyz: Frame 12 of 24
C        6.9239948185   -0.9447387879    0.3284851569
C        6.0150987869   -1.6543974406    1.1197199473
C        6.4808476421   -0.3608750492   -0.8632270616
C        4.6794795555   -1.7856701197    0.7312252613
C        5.1427726590   -0.4636833081   -1.2471986443
C        4.2272758164   -1.1739070583   -0.4516231155
C        1.6974506780   -1.1879259465   -0.1744533953
C        0.6004910145   -0.5976143978    1.9252188836
N        2.8914377545   -1.2992602417   -0.8900791960
N        1.8079028404   -0.9138479271    1.1693173633
O        0.6188636642   -1.3445528874   -0.7459040704
H        7.9634692965   -0.8553339369    0.6311037505
H        6.3500756121   -2.1323136308    2.0368018285
H        7.1758255542    0.1898197058   -1.4918179040
H        3.9940142350   -2.3828323780    1.3236583759
H        4.7977644371    0.0122830660   -2.1622934870
H        0.1963408122    0.3914390533    1.6756691124
H        0.8358757070   -0.6331743831    2.9919455010
H       -0.1640765730   -1.3427827216    1.7034566941
H        2.7245659839   -1.2918490755   -1.8886519168
H        2.6726417184   -0.4922281950    1.4847777121
21   
Generated by ForceBalance from scan.xyz: Frame 13 of 24
C        6.9581623433   -1.0103606307    0.3028518813
C        6.0144497830   -1.6398288062    1.1196910489
C        6.5395220364   -0.4261673734   -0.8980340387
C        4.6677154216   -1.6923081148    0.7491962075
C        5.1939031801   -0.4507446499   -1.2654273420
C        4.2431381563   -1.0831136574   -0.4446303325
C        1.7098631966   -1.1560177800   -0.1530474871
C        0.5687315096   -0.6536339481    1.9463078836
N        2.9000378015   -1.1148290183   -0.8786330022
N        1.7990407661   -0.8500088816    1.1862213404
O        0.6501763532   -1.4355485398   -0.7128893682
H        8.0045445497   -0.9806643975    0.5931193302
H        6.3274012560   -2.1154060129    2.0457837931
H        7.2609874746    0.0640630408   -1.5465480829
H        3.9535832759   -2.2246227587    1.3680548604
H        4.8682836066    0.0260433826   -2.1870789682
H        0.0533699347    0.2765852707    1.6764487648
H        0.8141736502   -0.6358495104    3.0111589071
H       -0.1079152455   -1.4859422719    1.7501044193
H        2.7324914572   -1.2184699160   -1.8718011537
H        2.6118389001   -0.3235505179    1.4822833199
21   
Generated by ForceBalance from scan.xyz: Frame 14 of 24
C        6.9568756600   -1.0824174456    0.2722066644
C        5.9851750287   -1.6444801821    1.1048463006
C        6.5604209348   -0.4844644116   -0.9294473295
C        4.6330244931   -1.6181450060    0.7505981244
C        5.2117675130   -0.4328077404   -1.2820324082
C        4.2331355150   -1.0007577191   -0.4469848368
C        1.7083550422   -1.1215927682   -0.1439685667
C        0.5301023877   -0.6927059277    1.9562443512
N        2.8858253085   -0.9454311049   -0.8769597975
N        1.7636667919   -0.7577915554    1.1808093573
O        0.6861617810   -1.5336092290   -0.6905435412
H        8.0061910469   -1.1134446278    0.5515802322
H        6.2785809048   -2.1276337958    2.0334493387
H        7.3021523916   -0.0436796084   -1.5905141665
H        3.8960267098   -2.0936818259    1.3880370867
H        4.9049889849    0.0540780423   -2.2048233155
H       -0.0886664480    0.1716165250    1.6844962716
H        0.7838896972   -0.6363477570    3.0178188113
H       -0.0518721785   -1.5971252595    1.7758627395
H        2.7236423266   -1.1288654700   -1.8603073446
H        2.5223529104   -0.1477767043    1.4586254302
21   
Generated by ForceBalance from scan.xyz: Frame 15 of 24
C        6.9864713337   -1.1470794671    0.2596316461
C        5.9902681245   -1.6341535892    1.1098528653
C        6.6144513035   -0.5498915014   -0.9502938076
C        4.6381427989   -1.5345737546    0.7672730631
C        5.2681846446   -0.4286570560   -1.2937635268
C        4.2650828883   -0.9235143557   -0.4413231138
C        1.7529852271   -1.1015636622   -0.1481277762
C        0.5093262478   -0.7706059098    1.9376642694
N        2.9179931210   -0.7833655050   -0.8666373481
N        1.7385411292   -0.6836842854    1.1591165876
O        0.7998051029   -1.6499856126   -0.6973334747
H        8.0345013497   -1.2335481108    0.5320500766
H        6.2626398551   -2.1130256742    2.0470684021
H        7.3741149337   -0.1653305849   -1.6259833027
H        3.8814944351   -1.9460854758    1.4255746223
H        4.9827326376    0.0558774875   -2.2247112106
H       -0.2097372507    0.0126726567    1.6671963589
H        0.7541719794   -0.6854249761    2.9994552158
H        0.0416144317   -1.7387206684    1.7552594076
H        2.7721849129   -0.9962568888   -1.8478039875
H        2.4194714399    0.0164689355    1.4246094722
21   
Generated by ForceBalance from scan.xyz: Frame 16 of 24
C        7.0083623119   -1.2230617330    0.2388081025
C        5.9870855165   -1.6170714805    1.1069219656
C        6.6681396916   -0.6371197786   -0.9860175150
C        4.6423027545   -1.4346840815    0.7687842498
C        5.3310082735   -0.4389687895   -1.3284053106
C        4.3023950845   -0.8406014693   -0.4574069672
C        1.8063239615   -1.0651004035   -0.2000070616
C        0.4732691113   -0.8621956057    1.8538855224
N        2.9629965292   -0.6077127565   -0.8749041618
N        1.6814705963   -0.6040052578    1.0825877454
O        0.9568900994   -1.7454859952   -0.7687350575
H        8.0500462680   -1.3719049088    0.5084493539
H        6.2323831494   -2.0839656706    2.0576057502
H        7.4468403003   -0.3242721090   -1.6769266010
H        3.8655040609   -1.7696262403    1.4468060502
H        5.0739809349    0.0324494035   -2.2744913408
H       -0.3435708184   -0.1831371317    1.5799158784
H        0.6953055362   -0.7483200967    2.9180590036
H        0.1437489794   -1.8844716461    1.6642892827
H        2.8376720854   -0.7906676661   -1.8659289242
H        2.2748054709    0.1691664408    1.3537422736
21   
Generated by ForceBalance from scan.xyz: Frame 17 of 24
C        7.0290599272   -1.2983714572    0.2113854731
C        6.0009682687   -1.5965677398    1.1093852687
C        6.7041626380   -0.7252892554   -1.0235183681
C        4.6654971592   -1.3302731784    0.7916491571
C        5.3765901673   -0.4490905643   -1.3492657643
C        4.3422264172   -0.7531165465   -0.4468850181
C        1.8739144644   -1.0096421565   -0.1931046302
C        0.4687350010   -0.9030546742    1.8266191060
N        3.0099016937   -0.4252376412   -0.8301449318
N        1.6312641241   -0.4994149637    1.0490208470
O        1.1513017916   -1.8230996609   -0.7589676619
H        8.0634689379   -1.5109226754    0.4658242524
H        6.2335075923   -2.0501096828    2.0696984977
H        7.4878524333   -0.4873245339   -1.7382589191
H        3.8821281034   -1.5847283093    1.4972217908
H        5.1337192025    0.0062971587   -2.3071228394
H       -0.4270186922   -0.3347104481    1.5481133673
H        0.6734598714   -0.7534006775    2.8899037338
H        0.2721090789   -1.9603445575    1.6441057311
H        2.8885701020   -0.5595585915   -1.8305065037
H        2.1398482223    0.3343047492    1.3113476022
21   
Generated by ForceBalance from scan.xyz: Frame 18 of 24
C        7.0278049364   -1.3669534632    0.1722638355
C        6.0138961104   -1.5969433443    1.1065706926
C        6.6956812801   -0.7948739776   -1.0608608649
C        4.6867729322   -1.2613917535    0.8243199101
C        5.3741330239   -0.4555781209   -1.3524935429
C        4.3551019974   -0.6877266262   -0.4134717981
C        1.9222915982   -0.9843054686   -0.1318503446
C        0.4200404827   -0.9399884136    1.8233645669
N        3.0264985947   -0.2832545678   -0.7360584201
N        1.5392094827   -0.4251724360    1.0483926504
O        1.3570376863   -1.9283421657   -0.6697502718
H        8.0567960106   -1.6317808601    0.3980443941
H        6.2520817685   -2.0473249576    2.0670018223
H        7.4683353007   -0.6110792589   -1.8031357494
H        3.9126075450   -1.4566637763    1.5595138243
H        5.1263528576   -0.0075723906   -2.3127134357
H       -0.5292465709   -0.4843205178    1.5172009213
H        0.5873489884   -0.7413141266    2.8852073250
H        0.3494937378   -2.0169618874    1.6649012283
H        2.8926455957   -0.3494868956   -1.7424627171
H        1.9615933094    0.4598981791    1.2940739367
21   
Generated by ForceBalance from scan.xyz: Frame 19 of 24
C        7.0530326878   -1.4208884636    0.1064525209
C        6.0646238379   -1.6434043705    1.0704616544
C        6.6950630691   -0.8210940312   -1.1056846069
C        4.7386746547   -1.2718465183    0.8365108358
C        5.3720479977   -0.4486871674   -1.3495737506
C        4.3802572569   -0.6706507035   -0.3808304197
C        1.9772849579   -1.0081630062   -0.0446401070
C        0.3182716334   -0.9511396547    1.7777444770
N        3.0504244226   -0.2232638139   -0.6285078198
N        1.4328909282   -0.3847267288    1.0329176417
O        1.5861160019   -2.0714654250   -0.5067217868
H        8.0822567957   -1.7133321053    0.2940020204
H        6.3238247022   -2.1142417441    2.0155066559
H        7.4476211962   -0.6438695265   -1.8699283593
H        3.9830451789   -1.4569181517    1.5944174555
H        5.1036290659    0.0170586080   -2.2958363142
H       -0.6462673809   -0.6409781351    1.3586135437
H        0.3750602790   -0.6311246689    2.8212665823
H        0.3795553942   -2.0393853288    1.7296362392
H        2.8867917391   -0.2072495738   -1.6330262359
H        1.7691394716    0.5462425296    1.2386819320
21   
Generated by ForceBalance from scan.xyz: Frame 20 of 24
C        7.3593047776   -1.0811465424    0.3595984520
C        6.4638776448   -2.0575217857    0.8095484633
C        6.9591175395   -0.2121646280   -0.6600856900
C        5.1864956070   -2.1786707055    0.2576166724
C        5.6800232543   -0.3117733239   -1.2114819432
C        4.7825262509   -1.2899982154   -0.7523922513
C        2.3545447241   -1.7549160352   -0.6206611886
C        0.1329402746   -1.0479389552    0.1444670144
N        3.4996001209   -1.3687496539   -1.3566167895
N        1.3668459503   -0.7947051384   -0.5925080514
O        2.2502089429   -2.8412301604   -0.0642170842
H        8.3531351941   -1.0026624918    0.7913345138
H        6.7646556761   -2.7466976160    1.5947330937
H        7.6401086526    0.5512869517   -1.0276459645
H        4.5047379916   -2.9513306741    0.5925976516
H        5.3765510347    0.3730906346   -2.0019293394
H       -0.6200937573   -0.3169051713   -0.1600649192
H        0.2814065653   -0.9898355588    1.2294289335
H       -0.2243742442   -2.0498862272   -0.0966403569
H        3.3228012650   -0.5805812591   -1.9706250431
H        1.6506263771    0.1696552681   -0.7032124725
21   
Generated by ForceBalance from scan.xyz: Frame 21 of 24
C        7.4431472111   -1.1621887987    0.2882143480
C        6.5282481850   -2.0994672863    0.7790227505
C        7.0280079975   -0.2597155101   -0.6960991271
C        5.2157971059   -2.1499512114    0.3027659588
C        5.7162280523   -0.2896573872   -1.1721357176
C        4.7981091694   -1.2290961553   -0.6725362829
C        2.3463951496   -1.6522408009   -0.5031394384
C        0.0228913768   -1.1108121574    0.0593008288
N        3.4846877437   -1.2235323724   -1.2042339963
N        1.2693474852   -0.7958175479   -0.6314624690
O        2.2980111100   -2.6940054247    0.1422782113
H        8.4631387467   -1.1386506883    0.6614884059
H        6.8392698659   -2.8134146170    1.5376670058
H        7.7232364537    0.4749466500   -1.0943347816
H        4.5167504523   -2.8907309486    0.6698603671
H        5.4017418549    0.4212471174   -1.9348384801
H       -0.7743731262   -0.4812602449   -0.3436754579
H        0.0975011639   -0.9572210203    1.1427487937
H       -0.2261217401   -2.1576629342   -0.1186346358
H        3.3178411091   -0.4500029607   -1.8374142480
H        1.4723702312    0.1837853206   -0.7809386094
21   
Generated by ForceBalance from scan.xyz: Frame 22 of 24
C        7.5229094782   -1.2297313000    0.2104211908
C        6.5881958956   -2.1184246819    0.7507096960
C        7.1015069679   -0.3013607293   -0.7470882944
C        5.2489580461   -2.0972848704    0.3524628812
C        5.7658681940   -0.2606383683   -1.1480824428
C        4.8278240402   -1.1526052815   -0.5987078203
C        2.3594423895   -1.5576694413   -0.4135699445
C       -0.0301694920   -1.1981213828   -0.0252712445
N        3.4939220306   -1.0611600880   -1.0565164064
N        1.2183859462   -0.8152998341   -0.6784397180
O        2.3497304040   -2.5665204782    0.2852996940
H        8.5621185264   -1.2623281322    0.5254795609
H        6.9028835031   -2.8505616200    1.4902684632
H        7.8110251082    0.3972950847   -1.1830689325
H        4.5334655186   -2.7986497743    0.7607647364
H        5.4470070734    0.4691755144   -1.8908647128
H       -0.8534576816   -0.6531792369   -0.4938957005
H       -0.0206249382   -0.9905381365    1.0518753124
H       -0.1894524464   -2.2681965634   -0.1628821253
H        3.3285984361   -0.3051231301   -1.7093340249
H        1.3481572337    0.1750448458   -0.8419644387
21   
Generated by ForceBalance from scan.xyz: Frame 23 of 24
C        7.5629365641   -1.3051789806    0.1385659658
C        6.6113982909   -2.1361509420    0.7375453333
C        7.1396069076   -0.3525607789   -0.7941263775
C        5.2534694493   -2.0347028373    0.4232814273
C        5.7873483457   -0.2336172942   -1.1140911551
C        4.8321466279   -1.0696059593   -0.5075873827
C        2.3525360634   -1.4699087380   -0.3239099878
C       -0.0765737429   -1.2829895307   -0.1028315426
N        3.4844329609   -0.8865814260   -0.8816759340
N        1.1772089428   -0.8321534231   -0.7008195076
O        2.3659978024   -2.4646413483    0.3957169413
H        8.6155390133   -1.3994084971    0.3904198160
H        6.9260541795   -2.8849648931    1.4602430343
H        7.8612252250    0.3032625226   -1.2744989598
H        4.5244351554   -2.6901760989    0.8796861174
H        5.4680212318    0.5142922300   -1.8384688977
H       -0.9074589033   -0.8188208826   -0.6400093867
H       -0.1475818190   -1.0355439154    0.9637447831
H       -0.1498255136   -2.3661797546   -0.2052340286
H        3.3277866839   -0.1682720682   -1.5767147862
H        1.2422802774    0.1611423289   -0.8857276253
21   
Generated by ForceBalance from scan.xyz: Frame 24 of 24
C        7.5911493289   -1.3981815632    0.0361165208
C        6.6307112141   -2.1580431850    0.7103814185
C        7.1675014359   -0.4276383691   -0.8777473504
C        5.2636871799   -1.9680330019    0.4905913394
C        5.8071692259   -0.2242772408   -1.1079240152
C        4.8432515871   -0.9904830545   -0.4274853311
C        2.3610972636   -1.3887286734   -0.2551422884
C       -0.0831455550   -1.3451866510   -0.1939501916
N        3.4880999247   -0.7098109339   -0.7024432132
N        1.1768648508   -0.8317653723   -0.7263588544
O        2.3852434831   -2.3911450131    0.4530416009
H        8.6501816597   -1.5592558505    0.2172408007
H        6.9446866234   -2.9179729912    1.4216638931
H        7.8954426936    0.1748604912   -1.4150165569
H        4.5274115062   -2.5673792002    1.0079038735
H        5.4883980918    0.5353058222   -1.8203067335
H       -0.9047976351   -0.9408023355   -0.7903472759
H       -0.2341900966   -1.0830556701    0.8608892476
H       -0.0868268436   -2.4323003255   -0.2776100749
H        3.3378452962   -0.0210910320   -1.4283043607
H        1.1941405589    0.1639478983   -0.9115586174
