23   

C        5.6999948003    1.7602209557    0.0652350985
C        4.7727645407    2.0879679660   -0.9234298898
C        5.4855884072    0.6380610493    0.8651826936
C        3.6365486255    1.2927406435   -1.1114235844
C        4.3483029902   -0.1559086498    0.6749443541
C        3.3976863882    0.1482551491   -0.3220298855
C        1.3270134452   -0.6473417387   -1.5648351290
C        2.1983112263   -0.6870352723   -0.5130619146
C        0.1891983460   -1.5997222246   -1.3689706526
C        1.7411792988   -1.7138808513    0.5142638396
C        0.8295582820   -2.5754204185   -0.3729885844
H        6.5808367349    2.3748837203    0.2125756956
H        4.9310605348    2.9611714384   -1.5459902465
H        6.2015924640    0.3797543136    1.6370683133
H        2.9307894299    1.5781830105   -1.8808356871
H        4.2252082230   -1.0149306727    1.3201488329
H        1.4458711406   -0.0288640467   -2.4460757718
H       -0.1209320136   -2.0962627284   -2.2938126402
H       -0.6561189811   -1.0751571785   -0.9115093961
H        1.1673447030   -1.2168670664    1.3029650200
H        2.5466273702   -2.3177758249    0.9401875833
H        0.1018192559   -3.1675785451    0.1908432811
H        1.4692488158   -3.2584008685   -0.9424449828
23   

C        5.6766725418    1.7466155202    0.0666061756
C        4.6709743455    2.1522338882   -0.8120243297
C        5.5464287642    0.5400149907    0.7563079822
C        3.5390799002    1.3507647163   -0.9997260304
C        4.4132690663   -0.2600487183    0.5665282908
C        3.3879415249    0.1268787584   -0.3171525404
C        1.4071327886   -0.7589984272   -1.6285483634
C        2.1913202213   -0.7122278493   -0.5124870485
C        0.2402597843   -1.6765785605   -1.4355743602
C        1.6315449795   -1.6215807353    0.5725220574
C        0.7810239120   -2.5578568573   -0.2999629769
H        6.5544204229    2.3658517919    0.2132411192
H        4.7652586854    3.0897717550   -1.3479808683
H        6.3252738816    0.2204443765    1.4392712900
H        2.7649795268    1.6874482041   -1.6783371968
H        4.3485126172   -1.1933328581    1.1101512240
H        1.6156733558   -0.2263188197   -2.5489393916
H       -0.0032577774   -2.2576939386   -2.3305868478
H       -0.6296471439   -1.1014971197   -1.1015769314
H        1.0016211664   -1.0383983454    1.2518088209
H        2.3876797545   -2.1786653955    1.1316303159
H       -0.0007905636   -3.0847013087    0.2562416663
H        1.4530187318   -3.2993528795   -0.7455093233
23   

C        5.6713693651    1.7394014937    0.0769191826
C        4.6016171032    2.2067132215   -0.6903430594
C        5.6120644785    0.4647700000    0.6458880585
C        3.4763862531    1.3981967030   -0.8885834560
C        4.4851906440   -0.3415827564    0.4455468874
C        3.4032627972    0.1089207824   -0.3287415061
C        1.4996454724   -0.8735122743   -1.6798969737
C        2.2086362474   -0.7352390689   -0.5238182256
C        0.3044972539   -1.7528050381   -1.4790001736
C        1.5561086867   -1.5166423168    0.6072323220
C        0.7488217486   -2.5245715487   -0.2259566916
H        6.5438534618    2.3641257842    0.2314736965
H        4.6413944905    3.1965379110   -1.1305474997
H        6.4397810055    0.0988128370    1.2426234741
H        2.6478594579    1.7727963624   -1.4778399150
H        4.4580031477   -1.3292261642    0.8892057455
H        1.7818895983   -0.4276427584   -2.6267272202
H        0.1109784805   -2.4167708272   -2.3273580021
H       -0.5746748046   -1.1361990852   -1.2647830511
H        0.8934195961   -0.8566502184    1.1760625986
H        2.2678447880   -2.0142283840    1.2721596487
H       -0.0798053623   -2.9825749106    0.3233757574
H        1.4346287757   -3.3157296998   -0.5478212417
23   

C        5.6726356167    1.7300826240    0.0829990288
C        4.5441958509    2.2475002977   -0.5591593684
C        5.6769433632    0.4013231843    0.5168378431
C        3.4240556432    1.4345542003   -0.7686015091
C        4.5547300472   -0.4086270458    0.3051822954
C        3.4191384829    0.0935790363   -0.3472131755
C        1.5873298451   -0.9993155159   -1.7196591152
C        2.2247493325   -0.7562099141   -0.5408781989
C        0.3648220884   -1.8374772061   -1.5062920643
C        1.4884616942   -1.4034335867    0.6223556556
C        0.7136701396   -2.4807695144   -0.1533468252
H        6.5409661587    2.3582874743    0.2465620677
H        4.5346798058    3.2788861782   -0.8927331996
H        6.5489604591   -0.0025365773    1.0184335239
H        2.5478966858    1.8418718390   -1.2592932361
H        4.5644338651   -1.4373455596    0.6454388011
H        1.9361236969   -0.6502659049   -2.6848751279
H        0.2117307610   -2.5835351184   -2.2923870901
H       -0.5137075224   -1.1903704584   -1.4141154047
H        0.8067857969   -0.6779652680    1.0776372203
H        2.1545764393   -1.8352528020    1.3754986069
H       -0.1570469981   -2.8673206571    0.3857137377
H        1.4015172524   -3.3109034643   -0.3471593923
23   

C        5.6786714176    1.7211944642    0.0745456800
C        4.4946988527    2.2798214933   -0.4159776442
C        5.7375478715    0.3529023010    0.3556906337
C        3.3731114612    1.4688605389   -0.6258677611
C        4.6135938747   -0.4545351612    0.1436816223
C        3.4231676683    0.0917078029   -0.3552662704
C        1.6764189427   -1.1360546659   -1.7350642667
C        2.2263393877   -0.7610091579   -0.5477672208
C        0.4322302230   -1.9406079164   -1.5172724235
C        1.4050403639   -1.2720187919    0.6261761707
C        0.6765898036   -2.4280073498   -0.0784131782
H        6.5479843964    2.3478145650    0.2389587496
H        4.4436037933    3.3409792144   -0.6314993475
H        6.6526541640   -0.0832118374    0.7397473792
H        2.4539767619    1.9044722334   -0.9998572087
H        4.6608113124   -1.5140281314    0.3665308699
H        2.1005577329   -0.9013477111   -2.7047084589
H        0.3267839422   -2.7701691295   -2.2234326452
H       -0.4431355611   -1.2842265745   -1.5619682158
H        0.7003407419   -0.4992058632    0.9492215777
H        2.0164465399   -1.6168784872    1.4658657064
H       -0.2343665401   -2.7496627296    0.4362270889
H        1.3679027198   -3.2762116649   -0.1277168504
23   

C        5.6882156576    1.7088275797    0.0661821818
C        4.4587912491    2.3004169962   -0.2393958261
C        5.7850281189    0.3174740836    0.1655136893
C        3.3289180960    1.4996500358   -0.4439795983
C        4.6526504325   -0.4796637828   -0.0406404286
C        3.4149758020    0.1014554919   -0.3468766136
C        1.7771291512   -1.2719749561   -1.7288612886
C        2.2139742305   -0.7465139839   -0.5519983296
C        0.5176131800   -2.0564388520   -1.5272349197
C        1.2995216499   -1.1329829327    0.6001637133
C        0.6369832797   -2.3712014531   -0.0256489192
H        6.5640539331    2.3274098512    0.2263420221
H        4.3794685673    3.3787527625   -0.3169787363
H        6.7363347333   -0.1446849251    0.4032894200
H        2.3759574264    1.9590610694   -0.6789802301
H        4.7289407790   -1.5577901360    0.0387053240
H        2.2934114480   -1.1601424453   -2.6755132222
H        0.4725905734   -2.9632324446   -2.1384900112
H       -0.3497936683   -1.4173805347   -1.7230517969
H        0.5668834621   -0.3384853762    0.7737220786
H        1.8410236463   -1.3715097152    1.5209563513
H       -0.3146736160   -2.6417284138    0.4426715094
H        1.3312603534   -3.2113096075    0.0835364560
23   

C        5.6975001012    1.6997681868    0.0678667582
C        4.4409413365    2.3021654154   -0.0452304892
C        5.8121741771    0.3088740660   -0.0167367553
C        3.3015368006    1.5124576115   -0.2394701665
C        4.6702707016   -0.4774261068   -0.2116130293
C        3.4037715480    0.1132658971   -0.3173723764
C        1.8794763231   -1.3990953382   -1.6765985054
C        2.1991330858   -0.7226865353   -0.5393253872
C        0.6037479481   -2.1633229594   -1.5022605087
C        1.1828758464   -0.9847798282    0.5616839568
C        0.5829372396   -2.2967190658    0.0303710439
H        6.5809307362    2.3097741072    0.2189725959
H        4.3483048397    3.3804804971    0.0161965119
H        6.7851723787   -0.1614377163    0.0680710980
H        2.3288058911    1.9812211012   -0.3311318534
H        4.7618750755   -1.5551934502   -0.2786851491
H        2.4917362031   -1.4110900305   -2.5711306463
H        0.6129266382   -3.1365166014   -2.0030026487
H       -0.2394448335   -1.5585709127   -1.8521949832
H        0.4348941911   -0.1857460575    0.5724637239
H        1.6378395596   -1.1053600637    1.5498716077
H       -0.4080397519   -2.5208326969    0.4376679848
H        1.2647769447   -3.1095149873    0.3027428957
23   

C        5.6962341493    1.6879735370    0.0832459627
C        4.4270546460    2.2708900252    0.1407858744
C        5.8216228443    0.3187382098   -0.1691825796
C        3.2858875338    1.4831937795   -0.0508619532
C        4.6781524614   -0.4661118762   -0.3606011824
C        3.3980327187    0.1026655345   -0.2941189738
C        1.9617711012   -1.5216980705   -1.6081675640
C        2.1942385425   -0.7234049831   -0.5290747895
C        0.6627011199   -2.2521015000   -1.4647737327
C        1.0815261581   -0.8594184213    0.4997002853
C        0.5097744383   -2.2183837510    0.0652387120
H        6.5810692877    2.2967383545    0.2311111016
H        4.3258535497    3.3332878306    0.3310200476
H        6.8044882038   -0.1358931793   -0.2181136979
H        2.3041391468    1.9403583043   -0.0135613890
H        4.7809077030   -1.5265706642   -0.5586136032
H        2.6491404199   -1.6413704384   -2.4378094870
H        0.6978542071   -3.2739011865   -1.8554521522
H       -0.1369881084   -1.6820763929   -1.9492586929
H        0.3466223407   -0.0608087537    0.3575966127
H        1.4467009948   -0.8727742814    1.5314716916
H       -0.5155164314   -2.3910307520    0.4074589538
H        1.1539986325   -3.0002297364    0.4817426501
23   

C        5.6998625465    1.6832838328    0.0958900353
C        4.4271304733    2.2239305033    0.2976343126
C        5.8330809774    0.3509595567   -0.3045208387
C        3.2903226880    1.4312886120    0.1007393514
C        4.6942987810   -0.4394386100   -0.5007952727
C        3.4092259711    0.0860422064   -0.2939578817
C        2.0304175825   -1.6369703998   -1.5398858456
C        2.2093248496   -0.7377691223   -0.5305899238
C        0.7053412776   -2.3238280898   -1.4210065953
C        1.0170345369   -0.7455788117    0.4153739512
C        0.4445703341   -2.1319786068    0.0818286700
H        6.5811609972    2.2962894308    0.2473175575
H        4.3194003059    3.2582491476    0.6037428163
H        6.8187527101   -0.0710799540   -0.4640334313
H        2.3071778538    1.8613230972    0.2506189669
H        4.8084589492   -1.4713869787   -0.8105492416
H        2.7672812810   -1.8536174135   -2.3046711208
H        0.7412264324   -3.3805281000   -1.7039274519
H       -0.0422247805   -1.7906486293   -2.0176918326
H        0.3153128142    0.0458176142    0.1335299276
H        1.3009053582   -0.6567768165    1.4687806740
H       -0.6065061389   -2.2507266706    0.3633783025
H        1.0382294788   -2.8776910656    0.6216515369
23   

C        5.6957627146    1.6864460666    0.1002056874
C        4.4269890098    2.1640991912    0.4370731924
C        5.8339097698    0.4049142039   -0.4385212949
C        3.2988524127    1.3603006975    0.2353977367
C        4.7042786423   -0.3972561594   -0.6395192043
C        3.4209505649    0.0658961469   -0.3031922162
C        2.0804064203   -1.7494196914   -1.4652655586
C        2.2279696074   -0.7665864348   -0.5296377703
C        0.7308389201   -2.3906982742   -1.3692974624
C        0.9755226386   -0.6562886704    0.3280681760
C        0.3826523740   -2.0529757867    0.0885025974
H        6.5700229474    2.3085249543    0.2553998510
H        4.3151374623    3.1590623034    0.8526099135
H        6.8168894657    0.0306410398   -0.7007984022
H        2.3217768585    1.7500338945    0.4940080175
H        4.8304774548   -1.3902448741   -1.0530272870
H        2.8474452608   -2.0513145210   -2.1685699181
H        0.7531456615   -3.4698512596   -1.5506701888
H        0.0378808941   -1.8985019317   -2.0597411850
H        0.3183672262    0.1214990657   -0.0738191598
H        1.1898974397   -0.4765076175    1.3863238221
H       -0.6871748689   -2.1185469987    0.3105403173
H        0.9183132348   -2.7589510741    0.7324244752
23   

C        5.6947065130    1.6944972446    0.0996114191
C        4.4419998913    2.0987792959    0.5654421388
C        5.8243979648    0.4753614551   -0.5686988605
C        3.3210436618    1.2850893368    0.3627961628
C        4.7026042962   -0.3373245369   -0.7708116817
C        3.4325919138    0.0533148632   -0.3090337852
C        2.1246157643   -1.8513304912   -1.3733296018
C        2.2461631201   -0.7920407375   -0.5187855407
C        0.7528825768   -2.4479130106   -1.3107397359
C        0.9427880510   -0.5740788432    0.2370283480
C        0.3210511778   -1.9698268269    0.0826114290
H        6.5629288292    2.3246778345    0.2560418048
H        4.3365627900    3.0453560589    1.0831612214
H        6.7953984057    0.1569335930   -0.9304821647
H        2.3615449179    1.6294458150    0.7277285707
H        4.8315011323   -1.2808178854   -1.2853722464
H        2.9166813123   -2.2348359240   -2.0047424901
H        0.7540211987   -3.5394009140   -1.3922537398
H        0.1215549782   -2.0045220408   -2.0878936700
H        0.3394312654    0.1824428014   -0.2749184094
H        1.0873833550   -0.3116055731    1.2897316073
H       -0.7626196108   -1.9863021199    0.2359704339
H        0.7898187895   -2.6283872469    0.8219087041
23   

C        5.6966322089    1.7040468844    0.0909179237
C        4.4764697380    2.0273541295    0.6868253858
C        5.7967981680    0.5600871283   -0.7024813941
C        3.3582652788    1.2080694924    0.4905651557
C        4.6784583456   -0.2586384835   -0.8984150961
C        3.4395211056    0.0501590050   -0.3058373391
C        2.1688986464   -1.9405423101   -1.2601428516
C        2.2580617444   -0.8081433185   -0.4991277687
C        0.7812417907   -2.5016067124   -1.2473901693
C        0.9101780687   -0.4979625792    0.1382523226
C        0.2601904524   -1.8871807221    0.0578806089
H        6.5621823853    2.3389156822    0.2431749300
H        4.3939036794    2.9159594481    1.3022527721
H        6.7422747680    0.3049242847   -1.1673422737
H        2.4306477788    1.4995915143    0.9649259999
H        4.7885352126   -1.1392099268   -1.5174077318
H        2.9906281671   -2.3993113970   -1.7956730253
H        0.7592980662   -3.5957596924   -1.2277963398
H        0.2213529303   -2.1206828658   -2.1079104847
H        0.3672637267    0.2268500957   -0.4768352714
H        0.9769297327   -0.1591147202    1.1762642822
H       -0.8319627779   -1.8650198668    0.1275667034
H        0.6515398787   -2.4866153040    0.8870659295
23   

C        5.7164815973    1.7159816482    0.0826886246
C        4.5492234675    1.9500168735    0.8117233088
C        5.7607728369    0.6626558375   -0.8320693341
C        3.4279244986    1.1318844830    0.6278450680
C        4.6395877840   -0.1549204033   -1.0154335408
C        3.4543747442    0.0641956737   -0.2890751920
C        2.2240180809   -1.9976662235   -1.1291402293
C        2.2742189628   -0.7995502354   -0.4736592417
C        0.8304732583   -2.5419091753   -1.1694478622
C        0.8901452267   -0.4153842120    0.0318861634
C        0.2218055118   -1.7987855299    0.0266705319
H        6.5842616994    2.3498969477    0.2259648488
H        4.5108445641    2.7672158950    1.5229969325
H        6.6641723644    0.4782143048   -1.4021337045
H        2.5469673674    1.3496206409    1.2156689224
H        4.6994210846   -0.9602244212   -1.7361093569
H        3.0796777772   -2.5121175852   -1.5490887756
H        0.7888372450   -3.6287362733   -1.0463683087
H        0.3440925979   -2.2412679440   -2.1032731375
H        0.4087148299    0.2570263904   -0.6853634200
H        0.8763093515    0.0131545705    1.0372542041
H       -0.8718294484   -1.7570872587    0.0070666889
H        0.5349102647   -2.3223656514    0.9364912591
23   

C        5.7119109498    1.7121774781    0.0767045178
C        4.6054987170    1.8531606855    0.9172392541
C        5.6921734666    0.7545300353   -0.9395488826
C        3.4807989648    1.0381480536    0.7413303565
C        4.5669396767   -0.0596032771   -1.1139681248
C        3.4431219064    0.0702795317   -0.2797042664
C        2.2558884491   -2.0535432313   -0.9953186156
C        2.2651530760   -0.7983991961   -0.4587912149
C        0.8650137979   -2.6009271554   -1.0761316637
C        0.8517030630   -0.3605040485   -0.1013692837
C        0.1783679775   -1.7384684930   -0.0070161790
H        6.5830357974    2.3429316536    0.2134540558
H        4.6184510375    2.5928647695    1.7096015279
H        6.5484692276    0.6420222096   -1.5946927462
H        2.6448053882    1.1633070052    1.4166849004
H        4.5669323610   -0.7922067531   -1.9116775232
H        3.1418951442   -2.6003063655   -1.2959269282
H        0.8086328410   -3.6693534517   -0.8451899336
H        0.4462597509   -2.3987855794   -2.0674881125
H        0.4301450846    0.2265004484   -0.9235919066
H        0.7707156021    0.1854923206    0.8419882143
H       -0.9110188774   -1.7013304656   -0.1071080370
H        0.4251419256   -2.1632152976    0.9720586574
23   

C        5.7102761409    1.7097559755    0.0786530043
C        4.6683615959    1.7506649633    1.0088948790
C        5.6256901966    0.8520919676   -1.0213488658
C        3.5426793145    0.9364979462    0.8367961046
C        4.4989434122    0.0387314587   -1.1909633832
C        3.4396109017    0.0748100277   -0.2706976421
C        2.2809236843   -2.1018155094   -0.8545606892
C        2.2654581360   -0.8032193318   -0.4396165551
C        0.8917636169   -2.6474515053   -0.9747765534
C        0.8376129369   -0.3191486278   -0.2340058953
C        0.1431611409   -1.6772079720   -0.0467315625
H        6.5827340863    2.3394954488    0.2114759498
H        4.7329077498    2.4104286677    1.8666151117
H        6.4330244859    0.8159206395   -1.7438536232
H        2.7488515395    0.9691309959    1.5728778954
H        4.4422912170   -0.6220765481   -2.0477730157
H        3.1830049927   -2.6725392576   -1.0428556402
H        0.8071834066   -3.6868197502   -0.6422442039
H        0.5435303156   -2.5445355859   -2.0078164370
H        0.4843483649    0.1811127671   -1.1413420446
H        0.7095769475    0.3287625510    0.6378643363
H       -0.9363455604   -1.6452537461   -0.2250578334
H        0.3177707311   -2.0013345626    0.9849290368
23   

C        5.7080689288    1.7092781249    0.0828235041
C        4.7419192726    1.6383572810    1.0905530123
C        5.5477132007    0.9624255992   -1.0879998992
C        3.6157112069    0.8238209809    0.9242837420
C        4.4203052589    0.1484569132   -1.2510491052
C        3.4370423665    0.0768424907   -0.2538317657
C        2.2890252730   -2.1395995878   -0.7003586781
C        2.2632693699   -0.8078743272   -0.4153209700
C        0.9027048184   -2.6802752343   -0.8685719007
C        0.8345858116   -0.2877179694   -0.3678701500
C        0.1042819468   -1.6134543306   -0.1003705367
H        6.5810102785    2.3394454208    0.2103200702
H        4.8656521270    2.2114857480    2.0023293167
H        6.2969600021    1.0121588474   -1.8698342928
H        2.8743578931    0.7647276335    1.7123477725
H        4.3019558233   -0.4308104210   -2.1592347820
H        3.1949557700   -2.7309056950   -0.7696346150
H        0.7757436772   -3.6799711664   -0.4413963350
H        0.6330312455   -2.6785791843   -1.9298547398
H        0.5589263173    0.1247008338   -1.3436734112
H        0.6635125927    0.4461031056    0.4256692200
H       -0.9583394161   -1.5884574250   -0.3618352027
H        0.1961359681   -1.8345124609    0.9685207481
23   

C        5.7069455605    1.7081438884    0.0888853984
C        4.8291929997    1.5055682810    1.1580401066
C        5.4612739687    1.0878680651   -1.1398669427
C        3.7061961241    0.6858448357    0.9954004053
C        4.3372364188    0.2683190112   -1.2984463577
C        3.4445102499    0.0644123029   -0.2375125344
C        2.2777297352   -2.1741631825   -0.5294328253
C        2.2654146535   -0.8187333144   -0.4041561714
C        0.8937140911   -2.7039203721   -0.7451929404
C        0.8530743617   -0.2675306500   -0.5254935841
C        0.0687391233   -1.5404486364   -0.1680529642
H        6.5770013036    2.3429720120    0.2129258934
H        5.0182905900    1.9815730416    2.1134362632
H        6.1412680288    1.2405228351   -1.9701772650
H        3.0293874935    0.5258102364    1.8264923620
H        4.1504609704   -0.2133550890   -2.2511053686
H        3.1703097818   -2.7850070751   -0.4561018923
H        0.7062723606   -3.6454652595   -0.2195318331
H        0.7064548380   -2.8187382181   -1.8179652558
H        0.6621194873    0.0370533513   -1.5594020317
H        0.6478832812    0.5549167207    0.1668303700
H       -0.9699566831   -1.5259120904   -0.5130990437
H        0.0730844611   -1.6388447958    0.9228677657
23   

C        5.7076544887    1.7143770214    0.0998448434
C        4.9332279817    1.3507962526    1.2056499626
C        5.3667718179    1.2452117616   -1.1724372734
C        3.8195270993    0.5196815908    1.0366584415
C        4.2524006986    0.4136901192   -1.3367533154
C        3.4681396699    0.0426152271   -0.2364538470
C        2.2543580219   -2.1909835386   -0.3551119133
C        2.2821843361   -0.8317888254   -0.4169077549
C        0.8711596104   -2.7076316830   -0.6045365458
C        0.9008259448   -0.2623437947   -0.7007623089
C        0.0502638356   -1.4577795887   -0.2411732637
H        6.5699802906    2.3587590489    0.2285085318
H        5.1939933181    1.7125112584    2.1937188939
H        5.9644405720    1.5255297495   -2.0322793667
H        3.2189091726    0.2392796299    1.8940301689
H        3.9891356216    0.0520740106   -2.3238507956
H        3.1147819719   -2.8085089766   -0.1237205163
H        0.6138932665   -3.5685482561    0.0204266481
H        0.7556195904   -2.9542841729   -1.6651657277
H        0.7866319130   -0.0864633145   -1.7750667697
H        0.6825123311    0.6468426141   -0.1318157420
H       -0.9614896736   -1.4609763265   -0.6589072698
H       -0.0228623587   -1.4141747014    0.8508325625
23   

C        5.6951843387    1.7204805631    0.1125932623
C        5.0283408631    1.1930384579    1.2223415424
C        5.2568503337    1.4042408996   -1.1768117567
C        3.9263489223    0.3491941337    1.0401660595
C        4.1545812095    0.5593718923   -1.3541519984
C        3.4830149147    0.0170012399   -0.2500041438
C        2.2156050245   -2.1860186894   -0.1935951347
C        2.2960650298   -0.8501953583   -0.4424731742
C        0.8358230896   -2.6976446251   -0.4700340132
C        0.9529046346   -0.2895329777   -0.8851059800
C        0.0360840992   -1.3908211687   -0.3282417625
H        6.5480900845    2.3751885762    0.2515292773
H        5.3622189128    1.4391161982    2.2238832607
H        5.7687460825    1.8145515460   -2.0397855152
H        3.4059399523   -0.0532525330    1.9013626436
H        3.8141658861    0.3198978438   -2.3547191286
H        3.0328318929   -2.7845718512    0.1924763500
H        0.5096306796   -3.4625634756    0.2416063288
H        0.7818411526   -3.0781455438   -1.4954395889
H        0.9082620292   -0.2555379438   -1.9782184857
H        0.7318551110    0.6927180434   -0.4557020711
H       -0.9475878699   -1.4244385065   -0.8072090215
H       -0.1023853447   -1.2000686545    0.7414277342
23   

C        5.6866338998    1.7274466873    0.1228476895
C        5.1242426923    1.0571096351    1.2129165484
C        5.1474113107    1.5513848775   -1.1548256563
C        4.0265358129    0.2095543460    1.0225660558
C        4.0497911196    0.7024493925   -1.3411600918
C        3.4840031792    0.0134044768   -0.2588623392
C        2.1737771768   -2.1484771060   -0.0572175588
C        2.3008388837   -0.8513616009   -0.4529803963
C        0.8051662125   -2.6710083619   -0.3663134114
C        0.9990084558   -0.3301332469   -1.0435278310
C        0.0254104169   -1.3464997195   -0.4257076618
H        6.5362401145    2.3849815455    0.2684869504
H        5.5353785155    1.1958288841    2.2063138940
H        5.5775354218    2.0737104688   -2.0017525274
H        3.5867140289   -0.3003424320    1.8716138966
H        3.6327022923    0.5734665097   -2.3329422404
H        2.9484095333   -2.7091926667    0.4533040753
H        0.4179472361   -3.3457471534    0.4035827086
H        0.8102219113   -3.1647623931   -1.3437181629
H        1.0237882014   -0.4231085895   -2.1338452812
H        0.7707728592    0.6981641429   -0.7458221527
H       -0.9263817921   -1.4214971557   -0.9610633457
H       -0.1762502882   -1.0322142330    0.6040278272
23   

C        5.6790985638    1.7308395760    0.1300102986
C        5.2140385025    0.9462578892    1.1886889460
C        5.0406469087    1.6704704377   -1.1116360339
C        4.1142715815    0.1004074410    1.0029612280
C        3.9412062059    0.8231831260   -1.2942884108
C        3.4691876097    0.0196370864   -0.2447253227
C        2.1207250647   -2.1023766078    0.0733176134
C        2.2924859941   -0.8486042713   -0.4338548388
C        0.7717085151   -2.6464149392   -0.2815292650
C        1.0423499095   -0.3878491906   -1.1694172031
C        0.0142994414   -1.3308440133   -0.5250921288
H        6.5304971514    2.3867696391    0.2723881303
H        5.7025658592    0.9947671997    2.1551787094
H        5.3959261662    2.2807586752   -1.9340986617
H        3.7533790720   -0.4957325385    1.8325824245
H        3.4524809698    0.7853162874   -2.2605577254
H        2.8494807308   -2.6196417921    0.6866386931
H        0.3226941962   -3.2407956640    0.5203783590
H        0.8405447062   -3.2332510973   -1.2035017452
H        1.1451741227   -0.5933983709   -2.2396205550
H        0.8031202342    0.6662460243   -0.9967487551
H       -0.8984002710   -1.4531842979   -1.1168209917
H       -0.2548428041   -0.9147591731    0.4518237536
23   

C        5.7054074797    1.7360849856    0.0561549968
C        5.0121595706    1.7604397200   -1.1560112422
C        5.2388950347    0.9408286661    1.1052811114
C        3.8531983778    0.9920259600   -1.3164087780
C        4.0793559335    0.1735247598    0.9425277172
C        3.3636531262    0.1897129285   -0.2672796349
C        1.1060975415   -0.3840368573   -1.2742625000
C        2.1527460967   -0.6308468774   -0.4338707671
C        0.0716755663   -1.4625791546   -1.1821068191
C        1.9406126267   -1.9410672215    0.3108802689
C        0.9369273889   -2.6106777289   -0.6399357301
H        6.6032138456    2.3307152482    0.1816709073
H        5.3731013992    2.3727286725   -1.9745097078
H        5.7748703584    0.9177538447    2.0472634172
H        3.3341564883    1.0143265273   -2.2667125063
H        3.7316974040   -0.4342451625    1.7690830933
H        1.0415782177    0.4641581046   -1.9455031188
H       -0.3830077017   -1.7065562970   -2.1473563624
H       -0.6965179799   -1.1768100182   -0.4559060171
H        1.4836377099   -1.7435153895    1.2857991519
H        2.8569219911   -2.5294492093    0.4221143394
H        0.3580210384   -3.4128368746   -0.1713872183
H        1.5006842974   -3.0300757176   -1.4803290832
23   

C        5.7041868211    1.7435099598    0.0605966692
C        4.9430484781    1.8736993284   -1.1018943495
C        5.3132181863    0.8334742122    1.0438232820
C        3.7936892227    1.0947467247   -1.2794182368
C        4.1632657316    0.0556739027    0.8643780055
C        3.3793782981    0.1687438242   -0.3003233518
C        1.1697922761   -0.4688058530   -1.3866872076
C        2.1709597129   -0.6530664534   -0.4754842674
C        0.1026960285   -1.5089044123   -1.2416431282
C        1.8821376580   -1.8757538466    0.3841812108
C        0.9060561092   -2.6149261971   -0.5429429418
H        6.5945189064    2.3463788977    0.1993648797
H        5.2429804149    2.5781366715   -1.8693104877
H        5.8999975465    0.7298011935    1.9494177377
H        3.2258637268    1.2109237881   -2.1936000910
H        3.8822878091   -0.6349246202    1.6496047300
H        1.1487951174    0.3116837665   -2.1373983859
H       -0.3097658822   -1.8390648360   -2.2002130712
H       -0.6926326006   -1.1335097722   -0.5892043752
H        1.3862479311   -1.5687369273    1.3106143898
H        2.7703811717   -2.4785352036    0.5978709495
H        0.2820908854   -3.3505034393   -0.0255173760
H        1.4969990608   -3.1318856322   -1.3068382860
23   

C        5.6942953620    1.7499699199    0.0641444263
C        4.8542911044    1.9846057415   -1.0241084193
C        5.3886135160    0.7274341891    0.9619898247
C        3.7135819957    1.1960431672   -1.2138379133
C        4.2471301933   -0.0599016627    0.7702983426
C        3.3840991549    0.1506362763   -0.3256557798
C        1.2336888983   -0.5614700096   -1.4899354311
C        2.1803592564   -0.6780998488   -0.5108310367
C        0.1310758147   -1.5570716838   -1.3065584209
C        1.8152727150   -1.8086268234    0.4413892663
C        0.8611436385   -2.6071646080   -0.4592353069
H        6.5781493429    2.3600043303    0.2126644137
H        5.0848192737    2.7796084366   -1.7240740504
H        6.0354485310    0.5430805942    1.8121687293
H        3.0827373351    1.4058825862   -2.0675618821
H        4.0439031590   -0.8353334312    1.4970260038
H        1.2700756507    0.1423741962   -2.3120582391
H       -0.2374083325   -1.9702509758   -2.2507730644
H       -0.6876955914   -1.1005357207   -0.7406526796
H        1.2888387464   -1.4043419325    1.3119314123
H        2.6674690605   -2.4219039308    0.7488400634
H        0.1882593599   -3.2700961183    0.0938453996
H        1.4719934416   -3.2143127688   -1.1361073380
