16   

C        5.0202481022    1.6401469350    0.1071835908
C        5.3180367015    0.5088481924    0.8043041286
C        3.3530568224    0.2730439071   -0.2439690917
C        2.0817715281   -0.3296392602   -0.7324156873
C        0.4484416185   -2.1483171594   -0.3783328046
N        3.8079575174    1.4804326344   -0.5366910435
N        4.2730229145   -0.3802510901    0.5944215104
N        1.6820491508   -1.4600941398   -0.0278889350
O        1.4027945339    0.0992478415   -1.6584596070
H        5.6395109059    2.5287041079    0.0586342603
H        6.2145061498    0.3527215122    1.3934289411
H        0.2815676293   -2.9939367242    0.2957771352
H        0.5047728028   -2.5284602165   -1.4038528415
H       -0.4041588927   -1.4653034053   -0.2981605717
H        4.2229210972   -1.3464936090    0.9007253520
H        2.1569603092   -1.6884163654    0.8341397227
16   

C        4.9861862755    1.6555185087    0.1830402047
C        5.3487600758    0.4765539443    0.7620552766
C        3.3945584653    0.2445907742   -0.3003654320
C        2.1386443816   -0.3764598304   -0.8111455777
C        0.4182602768   -2.0829151467   -0.3433894074
N        3.7759467857    1.4996846652   -0.4669464992
N        4.3494498423   -0.4407358222    0.4674554656
N        1.6634747682   -1.4061600230   -0.0130035088
O        1.5204525205   -0.0155340348   -1.8059921026
H        5.5583282449    2.5755764055    0.2222537293
H        6.2575186882    0.3089150658    1.3287926188
H        0.1944285462   -2.8501979905    0.4039797200
H        0.4978574940   -2.5663839884   -1.3227999728
H       -0.4097016070   -1.3661440306   -0.3662920992
H        4.3446156743   -1.4356624192    0.6721116488
H        2.0850573365   -1.5385366665    0.8971063382
16   

C        4.9502144749    1.6578511049    0.2657423739
C        5.3902223603    0.4535335955    0.7288984215
C        3.4457440049    0.2042939721   -0.3405223938
C        2.2076256887   -0.4436321883   -0.8725694117
C        0.3995513615   -2.0286122100   -0.3282876274
N        3.7409106592    1.4916661625   -0.3845594771
N        4.4434870362   -0.4912301384    0.3570229596
N        1.6507981480   -1.3610274534   -0.0028496023
O        1.6643708920   -0.1681134474   -1.9360002024
H        5.4670412255    2.6030785558    0.3875652202
H        6.3143524470    0.2887265851    1.2710999245
H        0.1247694287   -2.7264923413    0.4685091676
H        0.5017471809   -2.5925854191   -1.2614658316
H       -0.4046845127   -1.2938329912   -0.4422286916
H        4.4875838045   -1.4991748875    0.4794165757
H        2.0270089808   -1.4126320601    0.9358828911
16   

C        4.8545282058    1.6507163200    0.3420247649
C        5.3947592228    0.4463454634    0.6846887831
C        3.4357236997    0.1489168161   -0.3386515308
C        2.2185095525   -0.5440366870   -0.8785176946
C        0.3433437291   -2.0213283974   -0.2751254593
N        3.6334666034    1.4534098987   -0.2780170278
N        4.5012568905   -0.5299008125    0.2651120675
N        1.5827692643   -1.3330718633    0.0515649966
O        1.7759586259   -0.4091540573   -2.0132897452
H        5.3097517991    2.6170596837    0.5274186319
H        6.3487865473    0.3031585898    1.1791482500
H        0.0234677847   -2.6433919764    0.5664095774
H        0.4858540549   -2.6682456532   -1.1472107586
H       -0.4469954665   -1.2956309545   -0.4948007617
H        4.6096922702   -1.5397578684    0.3090049588
H        1.9042669884   -1.2817781652    1.0111228484
16   

C        4.7886437458    1.6498545302    0.4711225704
C        5.4391562148    0.4656963555    0.6593042232
C        3.4417168515    0.1098057568   -0.2591196885
C        2.2624759378   -0.6234205979   -0.8437305193
C        0.3215002718   -2.0322508038   -0.2965691169
N        3.5462324206    1.4151692403   -0.0926296821
N        4.5935755150   -0.5355403205    0.2010093183
N        1.5021653305   -1.2756062150    0.0902469727
O        2.0410976795   -0.7342355927   -2.0440219759
H        5.1838452949    2.6278515538    0.7216452879
H        6.4335406258    0.3528758357    1.0759126860
H       -0.0944229568   -2.5524525822    0.5717000926
H        0.5779466938   -2.7793219801   -1.0550780943
H       -0.4425786896   -1.3601144063   -0.7013919050
H        4.7767108673   -1.5333235300    0.1315565197
H        1.6964891328   -1.0839252384    1.0666484850
16   

C        4.7727168958    1.6642554668    0.5605665515
C        5.5259007115    0.5273145879    0.5928212014
C        3.4829265686    0.0754595236   -0.1677803410
C        2.3526936735   -0.6885071675   -0.8087449715
C        0.3262429319   -2.0130181097   -0.3508788390
N        3.5081998981    1.3739116539    0.0754409548
N        4.7216670404   -0.5012629016    0.1212287371
N        1.4330520626   -1.1717456771    0.0785593208
O        2.3981714761   -1.1126367163   -1.9582892645
H        5.1139060156    2.6491102750    0.8590011419
H        6.5595163383    0.4640410833    0.9131251249
H       -0.1486471595   -2.4821308311    0.5161855577
H        0.6799563298   -2.8074227225   -1.0164415861
H       -0.4209715401   -1.4115324741   -0.8791563149
H        4.9742920854   -1.4671040636   -0.0736040850
H        1.4716726886   -0.8080945982    1.0246604771
16   

C        4.7297623909    1.6354177118    0.6855165678
C        5.5691673603    0.5677619646    0.5579104542
C        3.5089765870    0.0044672064   -0.0735871949
C        2.4153475424   -0.7846518920   -0.7339572275
C        0.2976868678   -1.9829336171   -0.3348648325
N        3.4558559847    1.2816662283    0.2708790863
N        4.8104364206   -0.4824918558    0.0597757572
N        1.3902791884   -1.1263463176    0.1003718062
O        2.5765239818   -1.3747339951   -1.7973275380
H        5.0176146562    2.6175725771    1.0431701844
H        6.6279314656    0.5651033135    0.7900804604
H       -0.2638941995   -2.3457885356    0.5313385261
H        0.6799162190   -2.8520766346   -0.8803311725
H       -0.3819549717   -1.4236528789   -0.9863474218
H        5.1171024328   -1.4017385209   -0.2507308284
H        1.3513199362   -0.6429561992    0.9918585149
16   

C        4.6986892163    1.5780803994    0.7684734468
C        5.5951042383    0.5841137068    0.5051477654
C        3.5371066733   -0.0768055277   -0.0343336599
C        2.4655950417   -0.8932826960   -0.6819451928
C        0.2638435783   -1.9435642120   -0.3159719564
N        3.4245249438    1.1675542884    0.4095093683
N        4.8737372975   -0.4778928223   -0.0225217177
N        1.3677143191   -1.0938773080    0.1031564785
O        2.6726775647   -1.5929036931   -1.6686636895
H        4.9462083221    2.5490874638    1.1823381224
H        6.6652016873    0.6378352681    0.6691270807
H       -0.3542258351   -2.2100054953    0.5467687736
H        0.6361312309   -2.8699740810   -0.7656465565
H       -0.3586724590   -1.4175543103   -1.0473044544
H        5.2132411315   -1.3526831028   -0.4170772412
H        1.3001838405   -0.5138885801    0.9340182657
16   

C        4.6763923889    1.5234273854    0.8343521770
C        5.6090417496    0.6081797341    0.4423758765
C        3.5610353481   -0.1427786646   -0.0108016826
C        2.5035071606   -0.9922977241   -0.6243145789
C        0.2343889461   -1.9000179537   -0.2871976191
N        3.4060102789    1.0583554817    0.5317606062
N        4.9161665927   -0.4593540488   -0.1115526698
N        1.3555431158   -1.0620168944    0.1079048631
O        2.7267725910   -1.7706108594   -1.5467781056
H        4.8950974131    2.4773247952    1.3008866663
H        6.6829308118    0.7168894093    0.5415920926
H       -0.4231619855   -2.0766053490    0.5694042096
H        0.5852463501   -2.8714549934   -0.6509494041
H       -0.3406731838   -1.4096585853   -1.0795447885
H        5.2754531544   -1.2915863180   -0.5752566552
H        1.2843526668   -0.4070042257    0.8816278093
16   

C        4.6660900849    1.4856445618    0.8907278537
C        5.6129699296    0.6490002920    0.3761329623
C        3.5769968610   -0.1703082301   -0.0072538154
C        2.5293508529   -1.0505446598   -0.5840817702
C        0.2050846086   -1.8263278170   -0.2982720113
N        3.4014719723    0.9772487981    0.6364891848
N        4.9360388315   -0.4116291348   -0.2097352342
N        1.3415912743   -1.0011233169    0.0788877280
O        2.7597396776   -1.8855301831   -1.4538922211
H        4.8702448897    2.4138752210    1.4123773823
H        6.6849443259    0.8038291944    0.4188000254
H       -0.4829544707   -1.9268583254    0.5466260013
H        0.5334412236   -2.8300326571   -0.5880792196
H       -0.3289884780   -1.3702823017   -1.1382725783
H        5.3025841890   -1.2027318574   -0.7359134158
H        1.2753974443   -0.2944798632    0.8071697210
16   

C        4.6710269855    1.4244590704    0.8135025449
C        5.6051640336    0.6301310754    0.2153118105
C        3.5719331028   -0.2383075699   -0.0590719385
C        2.5224963279   -1.1632207415   -0.5525045880
C        0.1494498969   -1.7944138344   -0.2922662058
N        3.4075611273    0.8824392189    0.6328224804
N        4.9213793735   -0.4360199088   -0.3521572925
N        1.3064237372   -0.9701807502    0.0213162391
O        2.7491971714   -2.0807329091   -1.3359337182
H        4.8830187354    2.3444207627    1.3465520259
H        6.6730578321    0.8147296625    0.1937723986
H       -0.4982283493   -1.8808913480    0.5854804382
H        0.4554353848   -2.8049521356   -0.5830425169
H       -0.4199395360   -1.3478302159   -1.1137269047
H        5.2765852048   -1.2160518105   -0.9022922363
H        1.2564593317   -0.1981439051    0.6820900066
16   

C        4.6952778586    1.4614793395    0.8046232845
C        5.6166132805    0.7359333628    0.1074236894
C        3.5961947305   -0.1768895304   -0.1130692496
C        2.5577950162   -1.1330819576   -0.5670933840
C        0.1465699026   -1.6661181198   -0.4126903278
N        3.4404956645    0.8883192009    0.6633734561
N        4.9330740815   -0.3158701103   -0.4864279567
N        1.3119505624   -0.8476541869   -0.1107331554
O        2.8009806128   -2.0931338832   -1.2924758051
H        4.9106425916    2.3528741545    1.3829359114
H        6.6762383962    0.9544384191    0.0411572665
H       -0.4049490502   -1.8854654317    0.5067405618
H        0.4359026846   -2.6212955421   -0.8634248373
H       -0.5121272852   -1.1403782370   -1.1110057599
H        5.2829853923   -1.0639532850   -1.0824890203
H        1.2562558448   -0.0387153658    0.5042486576
16   

C        4.6689113439    1.4313239098    0.8024179965
C        5.5721103501    0.7449485645    0.0444464206
C        3.5596424431   -0.1961683269   -0.1222476130
C        2.5285891396   -1.1854084028   -0.5204617882
C        0.0965376711   -1.6102869486   -0.5654097795
N        3.4205677424    0.8363842567    0.7001405841
N        4.8828188110   -0.3021351842   -0.5511657071
N        1.2586465261   -0.8040161030   -0.2252516832
O        2.7861543379   -2.2109261855   -1.1441261787
H        4.8933413347    2.3079816832    1.3995059990
H        6.6244542701    0.9838992781   -0.0575953606
H       -0.1533255111   -2.2799827934    0.2637556968
H        0.2855119187   -2.2119614863   -1.4607545962
H       -0.7611568048   -0.9630924182   -0.7725430417
H        5.2261203318   -1.0407267785   -1.1626362275
H        1.1752384020    0.0849383409    0.2625614078
16   

C        4.6549738433    1.5239318159    0.8331955333
C        5.5412393897    0.8990583466    0.0052888089
C        3.5629827459   -0.1221022534   -0.0793840855
C        2.5629940109   -1.1690732804   -0.4095087915
C        0.1453280236   -1.6182896997   -0.6065858365
N        3.4304608704    0.8752787027    0.7865086100
N        4.8641927114   -0.1613052093   -0.5809269888
N        1.2717681472   -0.7578005937   -0.2817001897
O        2.8608198021   -2.2400103545   -0.9303193232
H        4.8763503299    2.3920829336    1.4436999637
H        6.5756278371    1.1852882144   -0.1464826509
H       -0.0648915177   -2.2945849995    0.2284260900
H        0.3566296516   -2.2128659266   -1.5016056283
H       -0.7444861709   -1.0132412510   -0.8053416435
H        5.2101265693   -0.8804795062   -1.2135252706
H        1.1440872067    0.1639652419    0.1283810348
16   

C        4.6859595205    1.4894022497    0.8837841570
C        5.5132249901    0.9424528287   -0.0530384858
C        3.5535548279   -0.1174133853   -0.0491424296
C        2.5590459430   -1.1873761687   -0.3365048661
C        0.1574082798   -1.6317647683   -0.6845830669
N        3.4760627884    0.8128176236    0.8941469796
N        4.8115591637   -0.0944845686   -0.6521770948
N        1.2668597236   -0.7527567114   -0.3502165672
O        2.8736454938   -2.2851899124   -0.7863824600
H        4.9399105888    2.3202015956    1.5323887256
H        6.5267304438    1.2622705121   -0.2661645316
H       -0.0980749117   -2.2587895417    0.1759580685
H        0.4148634208   -2.2767744759   -1.5312149480
H       -0.7197791517   -1.0403328443   -0.9639994122
H        5.1272352109   -0.7743783703   -1.3412430068
H        1.1136395549    0.1891985735   -0.0009305619
16   

C        4.7337524883    1.4549388050    0.9497589822
C        5.4795371720    0.9874726926   -0.0924265526
C        3.5484611130   -0.1172586434    0.0247179265
C        2.5552748425   -1.2076892152   -0.2175901739
C        0.1852248697   -1.6695574696   -0.7218502849
N        3.5443931865    0.7478720267    1.0295240666
N        4.7449792869   -0.0285474068   -0.6880699755
N        1.2740826509   -0.7672921664   -0.3805686888
O        2.8848982735   -2.3359107088   -0.5703376446
H        5.0316962764    2.2497732066    1.6242010975
H        6.4630626109    1.3438659508   -0.3762316359
H       -0.1248742430   -2.2358451306    0.1625798581
H        0.4931453498   -2.3710604638   -1.5042306993
H       -0.6717740271   -1.1005637727   -1.0948400878
H        5.0165258155   -0.6658707806   -1.4339093422
H        1.0964249403    0.1978660237   -0.1194441722
16   

C        4.7946649892    1.4075734644    1.0216894731
C        5.4382768019    1.0242457567   -0.1183084011
C        3.5459282549   -0.1260865222    0.1188487462
C        2.5397718985   -1.2212609754   -0.0886865250
C        0.2151518408   -1.6959533817   -0.7598287939
N        3.6298413600    0.6723063237    1.1715854794
N        4.6625857847    0.0330132787   -0.7036336322
N        1.2903313059   -0.7783933421   -0.4148611470
O        2.8647607390   -2.3843392689   -0.3044708259
H        5.1474551168    2.1629264587    1.7147870269
H        6.3835588998    1.4183884896   -0.4732514976
H       -0.1639253889   -2.1871842241    0.1424630691
H        0.5672816275   -2.4600502696   -1.4606873682
H       -0.6060347422   -1.1513757109   -1.2356786865
H        4.8733928012   -0.5513092173   -1.5096116103
H        1.1072230584    0.2091028807   -0.2690720472
16   

C        4.8728787660    1.3131102396    1.0789610091
C        5.3811139912    1.0324584661   -0.1554998354
C        3.5580667180   -0.1884563501    0.2217104678
C        2.5165119499   -1.2627034616    0.0398764768
C        0.2412210430   -1.7171027836   -0.7889928087
N        3.7463317865    0.5402931567    1.3076440882
N        4.5591597074    0.0656717956   -0.7184190246
N        1.3287912553   -0.8083404739   -0.4595645859
O        2.7828735177   -2.4595385719    0.0333046789
H        5.2921017830    2.0252753115    1.7807339139
H        6.2690799805    1.4784425417   -0.5885980513
H       -0.2266487404   -2.0922097098    0.1272955774
H        0.6103875601   -2.5658970198   -1.3741678933
H       -0.5163451846   -1.1977839678   -1.3837948986
H        4.6805620684   -0.4415235457   -1.5917132174
H        1.1843761000    0.1956438109   -0.4606325881
16   

C        4.9088924916    1.2293847263    1.0922198002
C        5.2709059453    1.0536156619   -0.2111841594
C        3.5488199585   -0.2649533940    0.2944957795
C        2.4515522293   -1.2848950335    0.1341041782
C        0.2195620735   -1.6764574142   -0.8232279075
N        3.8334757394    0.4108532980    1.3921617092
N        4.4110117240    0.1022543393   -0.7431705922
N        1.3734538840   -0.8261212921   -0.5750923971
O        2.5324687294   -2.4526367778    0.4971742071
H        5.3906485445    1.9049511222    1.7900343900
H        6.0879683898    1.5606876949   -0.7115623665
H       -0.2840355530   -1.9151725949    0.1195707666
H        0.5287458196   -2.6080881189   -1.3087032240
H       -0.4911508031   -1.1657436422   -1.4801540050
H        4.4283276791   -0.3160011129   -1.6698291239
H        1.3389355190    0.1657173636   -0.7822820962
16   

C        5.0027987773    1.1251502038    1.1192753542
C        5.2175222916    1.0620287765   -0.2259890531
C        3.5691913204   -0.3222545370    0.3569981397
C        2.4314409051   -1.2928350116    0.2278915038
C        0.2355065588   -1.6485412500   -0.8276897671
N        3.9686570098    0.2737745894    1.4658413354
N        4.3069842517    0.1468627019   -0.7367202936
N        1.4489899161   -0.8691132509   -0.6365441346
O        2.3280848813   -2.3443332143    0.8487192250
H        5.5557941066    1.7478639479    1.8134236934
H        5.9710880259    1.6208041364   -0.7691921761
H       -0.3311120024   -1.7038656978    0.1079469060
H        0.4830795045   -2.6638202170   -1.1551886128
H       -0.3952056556   -1.1843746823   -1.5920308995
H        4.2226232531   -0.1866532610   -1.6933533480
H        1.5152197148    0.0751388409   -0.9981284189
16   

C        5.1143290032    1.0741153135    1.1294263282
C        5.2033134226    1.1018750742   -0.2306443254
C        3.5879986625   -0.3018244100    0.4075761471
C        2.4358386728   -1.2509323584    0.3205404692
C        0.3008212732   -1.6882444781   -0.8319939923
N        4.1040013460    0.2101701810    1.5112074467
N        4.2351458390    0.2330364640   -0.7153529490
N        1.5228885528   -0.9171695976   -0.6611770699
O        2.2413647726   -2.2006287600    1.0703206850
H        5.7385570953    1.6418836502    1.8101498888
H        5.9128962383    1.6896413175   -0.8017691156
H       -0.3050268634   -1.6469406807    0.0795608439
H        0.5395660946   -2.7337158538   -1.0540590303
H       -0.2881592795   -1.2848957355   -1.6613529042
H        4.0700382794   -0.0402926191   -1.6801899807
H        1.6295681449   -0.0220933241   -1.1225640473
16   

C        5.1720362895    1.0055673767    1.1436781944
C        5.1603097988    1.1350251579   -0.2127062946
C        3.5382372493   -0.2581225233    0.4426320914
C        2.3686705432   -1.1811280171    0.3785961021
C        0.3147063860   -1.7215097050   -0.8782737247
N        4.1632910409    0.1452717391    1.5358146059
N        4.1267155662    0.3374663201   -0.6843135093
N        1.5305477178   -0.9419754838   -0.7000397653
O        2.1020172021   -2.0492042995    1.2016924802
H        5.8664112742    1.4984169264    1.8147470336
H        5.8475971860    1.7416467914   -0.7913101591
H       -0.3404731264   -1.6086731820   -0.0077486643
H        0.5591436074   -2.7814777369   -1.0049274363
H       -0.2255725273   -1.3824572488   -1.7673892097
H        3.8950508397    0.1354172340   -1.6524530260
H        1.6723610241   -0.0962031040   -1.2368017720
16   

C        5.0834908878    1.3611889427   -0.2698326989
C        5.2529338351    0.4072242550    0.6871308171
C        3.2538098348    0.1682860226   -0.2934775001
C        1.8966973811   -0.3547988696   -0.6143295699
C        0.3674705296   -2.2780467989   -0.3637988887
N        3.8459737994    1.2043607713   -0.8645657948
N        4.0992643783   -0.3645236886    0.6950877924
N        1.6456277818   -1.6279538838   -0.1148627204
O        1.0445627965    0.2366360963   -1.2674748073
H        5.8044395908    2.1298521443   -0.5243252277
H        6.1276225662    0.3004190019    1.3184888396
H        0.3575032253   -3.2774914664    0.0815695726
H        0.1933160807   -2.3747236071   -1.4409140776
H       -0.4470809417   -1.6939270941    0.0774420317
H        3.8648484847   -1.1051542578    1.3481339481
H        2.4153103461   -2.1619299224    0.2635764016
16   

C        5.0683572097    1.6191907239    0.0278796052
C        5.2975946748    0.5658741218    0.8594306526
C        3.3389142602    0.3012334834   -0.1957897220
C        2.0515908334   -0.2837419663   -0.6657058408
C        0.4727366469   -2.1720702645   -0.4434736561
N        3.8600386838    1.4424515585   -0.6179987562
N        4.2104457435   -0.2886077636    0.7374376609
N        1.7083713091   -1.4962943763   -0.0755069432
O        1.3159364810    0.2185216298   -1.5080835541
H        5.7322379837    2.4648088113   -0.1119957912
H        6.1743331546    0.4398789718    1.4843479731
H        0.3892963063   -3.1252131942    0.0874376384
H        0.4557408558   -2.3731761058   -1.5200040645
H       -0.3912371320   -1.5510502552   -0.1835465967
H        4.0844727649   -1.1788048569    1.2060888644
H        2.2945979290   -1.8828252880    0.6487862209
