12   
Generated by ForceBalance from scan.xyz: Frame 1 of 24
C        1.4689174889   -0.6503105419    0.1791506455
C       -1.1258480551   -0.4076341767    0.6827454725
C       -0.4519014785    0.9466123761    0.7659230426
C        0.0954494706   -0.1313683331   -0.1417581891
O        2.4925408245   -0.2328469977   -0.3165732292
O        1.4492694274   -1.5680919052    1.1830430240
F       -0.0754277571    0.0649021673   -1.4934347991
H       -1.0288256059   -1.0954381262    1.5151856830
H       -2.0582781437   -0.4660152059    0.1301151891
H       -0.9246611775    1.7800109156    0.2556939236
H        0.1109889278    1.2020103946    1.6582540984
H        2.3839934665   -1.7659198000    1.3874081598
12   
Generated by ForceBalance from scan.xyz: Frame 2 of 24
C        1.4793791806   -0.5996926822    0.2219352145
C       -1.1128244006   -0.3845562438    0.7393971195
C       -0.4890990655    1.0039167153    0.7137255049
C        0.0878196114   -0.1126025155   -0.1088446285
O        2.4955701141   -0.0194819529   -0.0924657590
O        1.4704212141   -1.7311773561    0.9722502345
F       -0.0953098313   -0.0337583493   -1.4756663372
H       -0.9811654223   -1.0057655328    1.6189116194
H       -2.0501608172   -0.5186967712    0.2087051598
H       -1.0063433729    1.7770725333    0.1541320354
H        0.0691671858    1.3503497834    1.5780328285
H        2.4052535705   -1.9354260677    1.1718529784
12   
Generated by ForceBalance from scan.xyz: Frame 3 of 24
C        1.4910370716   -0.5905455297    0.3206193959
C       -1.1001573849   -0.3552118287    0.7876511614
C       -0.5133557137    1.0516949954    0.6583211440
C        0.1060050859   -0.1037291221   -0.0542332023
O        2.4965352324    0.0824743098    0.2496147012
O        1.4850333257   -1.8801999917    0.7383482642
F       -0.0541085493   -0.1608345913   -1.4297852995
H       -0.9696733436   -0.8979175245    1.7185566169
H       -2.0239811398   -0.5593773272    0.2555667412
H       -1.0519493549    1.7612483418    0.0381589958
H        0.0221920747    1.4825185496    1.4986499972
H        2.4150255540   -2.1147238667    0.9276397984
12   
Generated by ForceBalance from scan.xyz: Frame 4 of 24
C        1.4878272215   -0.5758079397    0.3954097964
C       -1.0963474534   -0.3210354507    0.8270009060
C       -0.5299986849    1.0865216366    0.6088833066
C        0.1126442252   -0.0982930614   -0.0204393981
O        2.4511797945    0.1410596225    0.5648496630
O        1.5301135968   -1.9239867902    0.5173164606
F       -0.0426773472   -0.2612522401   -1.3896519126
H       -0.9685835353   -0.7966334277    1.7946023205
H       -2.0093106494   -0.5776408606    0.2988542983
H       -1.0788978894    1.7457313217   -0.0557688051
H       -0.0029518816    1.5762433688    1.4216328781
H        2.4579605681   -2.1571276823    0.7174182343
12   
Generated by ForceBalance from scan.xyz: Frame 5 of 24
C        1.4643838972   -0.5628519880    0.4387550231
C       -1.1027800073   -0.2853350960    0.8618217157
C       -0.5477922192    1.1107834443    0.5665938780
C        0.0997341850   -0.0973783684   -0.0104494465
O        2.3559572986    0.1618060227    0.8296790655
O        1.5918123436   -1.9046369041    0.3166620304
F       -0.0759887959   -0.3378354446   -1.3642176445
H       -0.9650775419   -0.7081037031    1.8523474060
H       -2.0142272276   -0.5793154095    0.3507740234
H       -1.1070358339    1.7325839138   -0.1246679522
H       -0.0114805109    1.6398593079    1.3476820857
H        2.5136832237   -2.1203034243    0.5583226774
12   
Generated by ForceBalance from scan.xyz: Frame 6 of 24
C        1.4427817279   -0.6001173679    0.4805365742
C       -1.0998711530   -0.2592583488    0.8856703843
C       -0.5297307361    1.1130921377    0.5320985968
C        0.1012572993   -0.1228335495   -0.0075202402
O        2.2434001759    0.0822369369    1.0881110039
O        1.6652337102   -1.8909197737    0.1439184589
F       -0.0967833247   -0.4154481048   -1.3449109974
H       -0.9582950961   -0.6445132703    1.8906779080
H       -2.0156788660   -0.5650160045    0.3895742600
H       -1.0854799940    1.7139933755   -0.1800415626
H        0.0241618355    1.6613031740    1.2868932482
H        2.5657753864   -2.1062524362    0.4553482888
12   
Generated by ForceBalance from scan.xyz: Frame 7 of 24
C        1.4113661510   -0.6119882633    0.5008650674
C       -1.1089233289   -0.2223661710    0.9068803435
C       -0.5327336462    1.1236154732    0.4899676725
C        0.0842770254   -0.1391695134   -0.0128892118
O        2.0984638556    0.0050902806    1.2920161420
O        1.7621388568   -1.8094483865   -0.0182273589
F       -0.1441417293   -0.4808297118   -1.3312671633
H       -0.9505560995   -0.5669546338    1.9237823215
H       -2.0313426004   -0.5450046417    0.4345868018
H       -1.0890424030    1.6990415587   -0.2424518937
H        0.0376971619    1.6931064312    1.2157398442
H        2.6379117314   -2.0235913586    0.3577529525
12   
Generated by ForceBalance from scan.xyz: Frame 8 of 24
C        1.3853420147   -0.6585232049    0.5462227172
C       -1.1173699728   -0.1904360859    0.9356833259
C       -0.5090880970    1.1181201129    0.4664410928
C        0.0751478913   -0.1822636774    0.0063601096
O        1.9507887480   -0.1435068174    1.4931124668
O        1.8705612655   -1.7258971486   -0.1242330904
F       -0.1709042316   -0.5598890996   -1.2970552723
H       -0.9558195744   -0.5011752286    1.9625523316
H       -2.0497855513   -0.5070213327    0.4794955349
H       -1.0481763758    1.6776398681   -0.2908223175
H        0.0797829950    1.6970406082    1.1694208438
H        2.7182778847   -1.9513241534    0.3056357492
12   
Generated by ForceBalance from scan.xyz: Frame 9 of 24
C        1.3530139938   -0.7062725390    0.5633379313
C       -1.1325968346   -0.1555453984    0.9558836048
C       -0.4855171775    1.1101545809    0.4375649729
C        0.0481735912   -0.2316983397    0.0153576426
O        1.8101581452   -0.3206795792    1.6241849212
O        1.9678177327   -1.6069794084   -0.2330179642
F       -0.2177747244   -0.6351463770   -1.2744004535
H       -0.9632309046   -0.4396121999    1.9889178136
H       -2.0822839090   -0.4512219253    0.5219864477
H       -1.0095007445    1.6604258673   -0.3370893104
H        0.1313993747    1.6919418608    1.1136222090
H        2.7988899836   -1.8437318170    0.2225475570
12   
Generated by ForceBalance from scan.xyz: Frame 10 of 24
C        1.3249165313   -0.7595546726    0.5861674684
C       -1.1480638052   -0.1236979919    0.9714729317
C       -0.4556627046    1.0939135249    0.4057969377
C        0.0205058998   -0.2911092690    0.0332859847
O        1.6883980630   -0.5258345540    1.7248006992
O        2.0577602805   -1.4638374056   -0.3028971259
F       -0.2581734883   -0.7210101290   -1.2444118871
H       -0.9816156408   -0.3794691330    2.0121760212
H       -2.1128939726   -0.3925831392    0.5539346094
H       -0.9564559415    1.6347335461   -0.3907187111
H        0.1853875256    1.6771931633    1.0578514882
H        2.8783679345   -1.7132022083    0.1647610846
12   
Generated by ForceBalance from scan.xyz: Frame 11 of 24
C        1.4646838930   -0.4142430365    0.5023984742
C       -1.1233564358   -0.4805853802    0.4951182687
C       -0.6973831327    0.9028702719    0.9268060430
C        0.1635641709    0.0961473598   -0.0245879818
O        1.5634529332   -1.0838514465    1.5143569601
O        2.5197562918   -0.0490305351   -0.2579586848
F        0.1932974412    0.5157314750   -1.3351697855
H       -1.0403351527   -1.2962328571    1.2049663138
H       -1.9241187934   -0.5528346727   -0.2336344237
H       -1.2032741222    1.7510882228    0.4766669991
H       -0.3289366613    1.0448781955    1.9372114897
H        3.3080200126   -0.4305363487    0.1748120027
12   
Generated by ForceBalance from scan.xyz: Frame 12 of 24
C        1.4544959181   -0.4646990474    0.4583074836
C       -1.1404424763   -0.4690765160    0.5252708376
C       -0.6607770544    0.9153047884    0.9013074270
C        0.1428629148    0.0494642697   -0.0486294136
O        1.5662108238   -1.3026327502    1.3331632733
O        2.5075719067    0.1101042603   -0.1641359519
F        0.1551904423    0.4345409115   -1.3708633668
H       -1.0603610467   -1.2669900175    1.2554753906
H       -1.9690529588   -0.5379632062   -0.1719839697
H       -1.1552342276    1.7644049408    0.4399019773
H       -0.2638920396    1.0815916491    1.8975669247
H        3.3070209687   -0.2938784099    0.2255142397
12   
Generated by ForceBalance from scan.xyz: Frame 13 of 24
C        1.4392868895   -0.5222471838    0.4180556245
C       -1.1582914313   -0.4537031039    0.5516198728
C       -0.6349495761    0.9345710329    0.8698905695
C        0.1202970031    0.0161866195   -0.0618988444
O        1.5736500099   -1.5154128534    1.1052354203
O        2.4759870884    0.2282269438   -0.0195175771
F        0.1237221488    0.3541465848   -1.3990708293
H       -1.0846931713   -1.2306438075    1.3051510560
H       -2.0086651011   -0.5224897426   -0.1189412145
H       -1.1244006872    1.7780243852    0.3927000186
H       -0.2164488503    1.1299552571    1.8523351238
H        3.2877864696   -0.2079974067    0.3043991683
12   
Generated by ForceBalance from scan.xyz: Frame 14 of 24
C        1.4444286273   -0.5582403481    0.3888917116
C       -1.1537275231   -0.4431535265    0.5955764472
C       -0.6133556566    0.9593752416    0.8422053201
C        0.1131387623   -0.0021946716   -0.0555031159
O        1.6199636604   -1.6669569116    0.8508341067
O        2.4449518787    0.3278985378    0.1752721962
F        0.0987471217    0.2685262701   -1.4109995002
H       -1.0749540602   -1.1878079189    1.3809587516
H       -2.0196566630   -0.5340656218   -0.0521310519
H       -1.1149169887    1.7827087446    0.3428827507
H       -0.1761759035    1.1977853343    1.8071045664
H        3.2748272741   -0.1235371856    0.4246013852
12   
Generated by ForceBalance from scan.xyz: Frame 15 of 24
C        1.4842138793   -0.5610748106    0.3553527221
C       -1.1111052632   -0.4331313957    0.6458913848
C       -0.5802531164    0.9896574431    0.8129014611
C        0.1356636840   -0.0029031814   -0.0475422936
O        1.7168969009   -1.7317189423    0.5707170876
O        2.4285361572    0.4086021367    0.4073773195
F        0.0862388909    0.1912324232   -1.4179784770
H       -1.0137407011   -1.1364426814    1.4669152472
H       -1.9883791431   -0.5661742089    0.0209364964
H       -1.1076639406    1.7817574432    0.2903603089
H       -0.1246089966    1.2786093950    1.7551159054
H        3.2756535840   -0.0371095320    0.6048947885
12   
Generated by ForceBalance from scan.xyz: Frame 16 of 24
C        1.4855111990   -0.5717491626    0.2674061029
C       -1.0909097469   -0.4183801952    0.6875424884
C       -0.5666605331    1.0172477053    0.7720453665
C        0.1234118447   -0.0013397068   -0.0716310392
O        1.7666290189   -1.7498333272    0.2215907997
O        2.3709572546    0.3929308985    0.6179161517
F       -0.0008318662    0.1236285745   -1.4468382506
H       -0.9614758415   -1.0808616282    1.5377561880
H       -1.9865537630   -0.5876771787    0.0982949400
H       -1.1247723705    1.7823723310    0.2416574138
H       -0.0747562844    1.3465938649    1.6818646850
H        3.2216725716   -0.0587744035    0.7851225367
12   
Generated by ForceBalance from scan.xyz: Frame 17 of 24
C        1.5088967901   -0.5463671349    0.2038524427
C       -1.0352898787   -0.4098713518    0.7438249921
C       -0.5581035082    1.0431355574    0.7233890284
C        0.1331770919    0.0047763939   -0.0944154375
O        1.8618562721   -1.6737303031   -0.0650732608
O        2.2968875349    0.3462212808    0.8553203265
F       -0.0779472165    0.0364120926   -1.4626450005
H       -0.8508133259   -1.0127904950    1.6276490726
H       -1.9419725640   -0.6489977861    0.1971651906
H       -1.1626561467    1.7584882922    0.1750293145
H       -0.0382507763    1.4360300115    1.5907722144
H        3.1434004246   -0.1104121619    1.0298470392
12   
Generated by ForceBalance from scan.xyz: Frame 18 of 24
C        1.5194884371   -0.5152975922    0.1363570329
C       -0.9838460213   -0.3913214331    0.7885734534
C       -0.5522540280    1.0681124896    0.6781336526
C        0.1363709873    0.0162078025   -0.1281646109
O        1.9557383204   -1.5452995691   -0.3281021175
O        2.1960355588    0.2392863410    1.0426056819
F       -0.1529696399   -0.0253133829   -1.4781143047
H       -0.7403702019   -0.9426838507    1.6913776047
H       -1.9016759100   -0.6864244750    0.2901573537
H       -1.1994888609    1.7382867538    0.1216876855
H       -0.0056391429    1.5143812387    1.5014539526
H        3.0369611119   -0.2283663661    1.2129272632
12   
Generated by ForceBalance from scan.xyz: Frame 19 of 24
C        1.5342883747   -0.4846010398    0.1002111798
C       -0.9474100522   -0.3742487067    0.8214096165
C       -0.5456613345    1.0808948976    0.6365657515
C        0.1413853151    0.0083561493   -0.1511031585
O        2.0713417352   -1.3792335235   -0.5144676257
O        2.0966567744    0.1199212768    1.1830699697
F       -0.1912287772   -0.0913948317   -1.4841852084
H       -0.6628413686   -0.8822417354    1.7371820757
H       -1.8718739314   -0.7083133789    0.3614861269
H       -1.2172886977    1.7152617916    0.0672476756
H        0.0170305298    1.5698120532    1.4236489525
H        2.9510217935   -0.3297564729    1.3308216492
12   
Generated by ForceBalance from scan.xyz: Frame 20 of 24
C        1.4316820340   -0.7435647799    0.1372640528
C       -1.1127124055   -0.4536310671    0.5558619038
C       -0.5014982065    0.8863833868    0.9179247702
C        0.1646270705    0.0115965224   -0.1055286043
O        2.0983284763   -1.2801306837   -0.7195217023
O        1.7147889455   -0.8296465370    1.4681518439
F        0.0511168313    0.4022710631   -1.4187647440
H       -1.0485359251   -1.2672318038    1.2704922855
H       -1.9841083249   -0.4545586932   -0.0909888630
H       -0.9774856048    1.7764463529    0.5193121406
H       -0.0163262905    0.9954342409    1.8811363652
H        2.5039629883   -1.4000407208    1.5391376258
12   
Generated by ForceBalance from scan.xyz: Frame 21 of 24
C        1.4373722054   -0.7258930304    0.1233716484
C       -1.1161778164   -0.4475817378    0.5848897441
C       -0.4872715792    0.8945582771    0.8921979995
C        0.1464223975   -0.0183020998   -0.1258991618
O        2.2214743407   -1.0747838505   -0.7308867944
O        1.6231915977   -0.9681859434    1.4530001675
F        0.0075521178    0.3423233948   -1.4437148733
H       -1.0377343854   -1.2420917317    1.3187364636
H       -2.0054137265   -0.4566317917   -0.0371776000
H       -0.9633999344    1.7773841868    0.4779079404
H        0.0254063540    1.0268943321    1.8382275454
H        2.4652931938   -1.4569161355    1.5217182090
12   
Generated by ForceBalance from scan.xyz: Frame 22 of 24
C        1.4433165089   -0.7118967962    0.1231076897
C       -1.1212240271   -0.4432207743    0.6163958156
C       -0.4712254191    0.8976201534    0.8733643202
C        0.1278863008   -0.0550299259   -0.1357017636
O        2.3230984708   -0.8649052089   -0.6949266719
O        1.5530298555   -1.1122917257    1.4227759374
F       -0.0284229010    0.2783943998   -1.4578725436
H       -1.0352046230   -1.2195810236    1.3682088456
H       -2.0268345310   -0.4545128029    0.0184237682
H       -0.9425950390    1.7753686257    0.4429283035
H        0.0648955949    1.0508559535    1.8033354926
H        2.4415182185   -1.5073226261    1.5075684817
12   
Generated by ForceBalance from scan.xyz: Frame 23 of 24
C        1.4485586897   -0.6963267631    0.1239286866
C       -1.1286385483   -0.4324055977    0.6284072180
C       -0.4581154929    0.9061036228    0.8345254484
C        0.1115213645   -0.0904285228   -0.1541499427
O        2.4023081343   -0.6551049385   -0.6213663645
O        1.4968324276   -1.2528706279    1.3680102667
F       -0.0528326824    0.2101563272   -1.4834850120
H       -1.0439584382   -1.1863109618    1.4026362546
H       -2.0451468916   -0.4468000746    0.0471990217
H       -0.9220199069    1.7777254901    0.3839452032
H        0.0931657755    1.0804455628    1.7522358596
H        2.4164526333   -1.5568931334    1.4899973341
12   
Generated by ForceBalance from scan.xyz: Frame 24 of 24
C        1.4560264303   -0.6813106196    0.1383621957
C       -1.1292704385   -0.4247353781    0.6532312497
C       -0.4467789763    0.9166634768    0.8002514584
C        0.0988724732   -0.1232915046   -0.1577762287
O        2.4556574469   -0.4484460162   -0.5050327702
O        1.4637968547   -1.4054610596    1.2923869151
F       -0.0740550455    0.1341957205   -1.4960714870
H       -1.0399570081   -1.1500217706    1.4538279485
H       -2.0569736271   -0.4519958096    0.0904518277
H       -0.9088849506    1.7754535375    0.3236926548
H        0.1169345648    1.1235832887    1.7039991005
H        2.3975342169   -1.6392854049    1.4571334791
