28   

C       -0.9864301506    0.3276405861    0.5217255325
C       -2.0409333087   -0.5895520857    0.6208310403
C       -1.7878434212    1.4789604751    2.5031845089
C       -3.9210815156    0.3917739006    3.5397769427
C       -2.8339443649    0.5554035615    2.5899832537
C       -0.8416024502    1.3739988621    1.4579443492
C       -2.9511023167   -0.4560451092    1.6616708042
C       -4.6570454247   -0.7109892841    3.1426344409
C       -5.7902527125   -1.3931287484    3.7610273493
C        1.2176044127    2.2844758016    2.5629084697
C       -0.2032470647    3.7696741165    1.0968233886
C        0.3123453690    2.3470651069    1.3292563235
N       -4.0551452951   -1.2375636008    1.9771121756
O       -6.1773432009   -2.5078616311    3.4361591648
O       -6.3724319942   -0.7090113225    4.7738570725
H       -0.2745526540    0.2218149822   -0.2887735082
H       -2.1447441872   -1.3924841872   -0.0980154759
H       -1.7103709280    2.2651781369    3.2438488499
H       -4.1130630989    0.9999325997    4.4155262507
H        0.6734032426    2.5783884349    3.4654246006
H        2.0726789375    2.9562434709    2.4385677174
H        1.5962974989    1.2663583033    2.6984295461
H       -0.8001169929    4.1145146608    1.9465123132
H       -0.8254262669    3.7997454905    0.1966669264
H        0.6363184830    4.4580736979    0.9587482008
H        0.9162813620    2.0657638508    0.4599786771
H       -4.3670051531   -2.0780267220    1.4945209448
H       -7.0858095693   -1.2860249894    5.0903282027
28   

C       -0.7191888566    0.1396853681    0.7973096443
C       -1.7288347436   -0.8220877082    0.9347568415
C       -1.8743697216    1.5911755729    2.3631893689
C       -4.0728014776    0.5522982142    3.3072384975
C       -2.8724267937    0.6206341229    2.4923667724
C       -0.7737939504    1.3587292508    1.5067738346
C       -2.7943241471   -0.5599103515    1.7866857098
C       -4.6811426212   -0.6639054536    3.0512502774
C       -5.8041141019   -1.3321243718    3.7081728754
C        1.0248089103    2.6519737019    2.6881136732
C       -0.1997039492    3.6673090009    0.7277086349
C        0.3382447171    2.3751302473    1.3471044418
N       -3.8866243589   -1.3556469233    2.1081894133
O       -5.9340257219   -2.5466154377    3.7764410529
O       -6.6703825549   -0.4929075640    4.3225476561
H        0.1148321700   -0.0670281329    0.1365846832
H       -1.6780535098   -1.7580877777    0.3929792774
H       -1.9509685660    2.5107379165    2.9299753016
H       -4.4115947467    1.2917204575    4.0227862219
H        0.3239158705    3.0859005262    3.4074567292
H        1.8561629324    3.3502638157    2.5496920275
H        1.4227504601    1.7211802738    3.1047631782
H       -0.9495214767    4.1301471197    1.3763749889
H       -0.6598156145    3.4537189294   -0.2423243545
H        0.6158695159    4.3805503454    0.5729963924
H        1.0935894051    1.9681346763    0.6664268610
H       -4.0548720951   -2.3101668858    1.7973795748
H       -7.3325047734   -1.0709990886    4.7340754389
28   

C       -0.7446478841    0.1688265204    0.7513379293
C       -1.7605355926   -0.7880602025    0.8772760439
C       -1.8844603650    1.6035333582    2.3434998117
C       -4.0776410552    0.5582784488    3.2905572827
C       -2.8882236901    0.6374904631    2.4614863015
C       -0.7881773205    1.3768535896    1.4801649506
C       -2.8211296750   -0.5322207156    1.7373425326
C       -4.6936213610   -0.6508097569    3.0216005853
C       -5.7700641126   -1.3410629969    3.7408592179
C        1.0184156261    2.6416289467    2.6820876895
C       -0.1936588809    3.6894137459    0.7311623942
C        0.3327190325    2.3859260377    1.3362162108
N       -3.9123156377   -1.3301795725    2.0580594663
O       -5.7641513957   -2.5341678982    4.0049147043
O       -6.7434717778   -0.5210689706    4.2005104821
H        0.0865212334   -0.0338971840    0.0857986650
H       -1.7166041885   -1.7167812610    0.3225549514
H       -1.9516060869    2.5134670088    2.9267746527
H       -4.3950389052    1.2790291445    4.0342882700
H        0.3197541804    3.0733803248    3.4048869405
H        1.8559376488    3.3344451171    2.5536111305
H        1.4076448375    1.7029048861    3.0890771625
H       -0.9420685157    4.1495733840    1.3833672328
H       -0.6524067528    3.4909873006   -0.2427171835
H        0.6276362336    4.3984030290    0.5876071698
H        1.0867073241    1.9810409186    0.6527825118
H       -4.0698425855   -2.2867562499    1.7493040039
H       -7.3531922125   -1.1000022729    4.6852069390
28   

C       -0.7784994543    0.1823211015    0.7134480228
C       -1.8012012516   -0.7682043312    0.8332055488
C       -1.8947887874    1.6027747017    2.3345640526
C       -4.0827710294    0.5567259811    3.2907124850
C       -2.9049565131    0.6427401606    2.4465589017
C       -0.8067729655    1.3799742892    1.4599443093
C       -2.8531953244   -0.5166565853    1.7051686305
C       -4.7088442116   -0.6439031980    3.0121550669
C       -5.7521873969   -1.3441299480    3.7827636174
C        1.0149034034    2.6165033741    2.6703071966
C       -0.1953974312    3.6952341099    0.7353312817
C        0.3223810745    2.3810086791    1.3240818678
N       -3.9450214012   -1.3135245732    2.0273412173
O       -5.6274556102   -2.4655034200    4.2472446862
O       -6.8406134658   -0.5867205898    4.0502677870
H        0.0466320626   -0.0177747338    0.0396514377
H       -1.7677760602   -1.6897608894    0.2659786293
H       -1.9495238504    2.5038925174    2.9326228361
H       -4.3785119981    1.2627171087    4.0570348977
H        0.3226872979    3.0466520244    3.4002154590
H        1.8578898202    3.3034866990    2.5462336772
H        1.3975556296    1.6702825192    3.0660194947
H       -0.9382929436    4.1536818256    1.3950182251
H       -0.6585852966    3.5112952304   -0.2392832544
H        0.6310210537    4.3993356521    0.5972550104
H        1.0708476248    1.9774667112    0.6338199009
H       -4.1026195938   -2.2667102502    1.7098837817
H       -7.4119173116   -1.1492059940    4.5970227897
28   

C       -0.7908542042    0.1986825573    0.6994291509
C       -1.8157962708   -0.7490457636    0.8221635051
C       -1.8781959931    1.6038990483    2.3531320099
C       -4.0580945481    0.5560275521    3.3260618367
C       -2.8907037323    0.6466186310    2.4679671497
C       -0.8037336992    1.3874777449    1.4603294137
C       -2.8543701388   -0.5038120932    1.7119097843
C       -4.6915295561   -0.6365995712    3.0422404410
C       -5.7436563493   -1.3296083416    3.8250237614
C        1.0375587763    2.6073530794    2.6586748256
C       -0.1944523346    3.7071942700    0.7494596163
C        0.3269238076    2.3861504732    1.3194869383
N       -3.9462246537   -1.2990273816    2.0381988074
O       -5.5533278557   -2.3220947437    4.5044438432
O       -6.9415058405   -0.7022748472    3.8115625102
H        0.0237942293    0.0035398995    0.0115636825
H       -1.7941983474   -1.6635828696    0.2431601572
H       -1.9209516456    2.4982034137    2.9622783327
H       -4.3407731550    1.2558946798    4.1027154473
H        0.3563113513    3.0331255686    3.4013461688
H        1.8810639852    3.2928163751    2.5297959136
H        1.4222672901    1.6564290238    3.0408763381
H       -0.9276611437    4.1615050764    1.4227139223
H       -0.6704832908    3.5335532750   -0.2208517134
H        0.6321465287    4.4102854007    0.6073739405
H        1.0652135726    1.9867473561    0.6159823706
H       -4.1178162708   -2.2412786735    1.6977878689
H       -7.5114863420   -1.2319659663    4.3913051609
28   

C       -0.7409152345    0.1692355635    0.8096625246
C       -1.7429449446   -0.7940613420    0.9852907197
C       -1.7922545640    1.5820405505    2.4807076951
C       -3.9463953113    0.5322985146    3.5148979507
C       -2.7843277728    0.6106046751    2.6464397366
C       -0.7479936208    1.3700434749    1.5513262933
C       -2.7529426566   -0.5516271026    1.9078591968
C       -4.5678453863   -0.6674623433    3.2654296198
C       -5.7607136132   -1.2733499419    3.9280683613
C        1.1326186483    2.6252953820    2.6392256671
C       -0.2263200254    3.7030396206    0.8045556046
C        0.3512397948    2.3915454741    1.3430213666
N       -3.8345567959   -1.3468125331    2.2642337721
O       -5.7207123935   -2.0011817551    4.8993623941
O       -6.9343355781   -0.9422552044    3.3438255698
H        0.0486755617   -0.0208055817    0.0917920209
H       -1.7300748117   -1.7143326194    0.4151894140
H       -1.8323441424    2.4887944325    3.0713638238
H       -4.2577464466    1.2717180852    4.2423086040
H        0.4853201948    3.0345605092    3.4205891581
H        1.9528342080    3.3285136266    2.4642131635
H        1.5580448895    1.6817039080    2.9955534510
H       -0.9255040090    4.1466023668    1.5197864362
H       -0.7562330595    3.5203447560   -0.1357282121
H        0.5781382077    4.4200112216    0.6131513489
H        1.0545506955    2.0063920392    0.5970047664
H       -4.0457827154   -2.2676691299    1.8904834622
H       -7.6149758134   -1.3888963985    3.8716875004
28   

C       -0.7091444654    0.0989672415    0.9149780121
C       -1.6958781366   -0.8700038790    1.1400918381
C       -1.7279246337    1.5385113401    2.5831319342
C       -3.8724605688    0.5156319156    3.6605215502
C       -2.7064825035    0.5626544150    2.7957487450
C       -0.7081068495    1.3161684507    1.6295471412
C       -2.6829353846   -0.6164552521    2.0843093008
C       -4.4942707223   -0.6959417128    3.4531348401
C       -5.8127149268   -1.1594621454    3.9537379226
C        1.2090992743    2.5936732425    2.6136307281
C       -0.2484028255    3.6544934791    0.8461498561
C        0.3667013721    2.3490488498    1.3590360236
N       -3.7652981182   -1.3995203857    2.4650279048
O       -6.0629183745   -1.5071615922    5.0908484677
O       -6.7349402917   -1.2824774086    2.9707029711
H        0.0591600488   -0.0972769153    0.1760005270
H       -1.6940354724   -1.7993898535    0.5848342302
H       -1.7656608705    2.4611986606    3.1487703130
H       -4.2172298134    1.3032092465    4.3192787290
H        0.5959954967    2.9960776486    3.4256175126
H        2.0114724632    3.3058385793    2.3971890129
H        1.6620970684    1.6552383404    2.9489161511
H       -0.9117671665    4.0976537721    1.5948985104
H       -0.8256538546    3.4644381299   -0.0643416485
H        0.5397135405    4.3762348790    0.6097653236
H        1.0343237006    1.9680939576    0.5788649192
H       -4.0319197765   -2.2903799772    2.0555740037
H       -7.5319543268   -1.6131060011    3.4147412514
28   

C       -0.7026080969    0.1240960268    0.9331301583
C       -1.6959409863   -0.8326670949    1.1813587186
C       -1.6877709212    1.5932644545    2.5953822877
C       -3.8328451403    0.6090382497    3.7041335985
C       -2.6733341145    0.6298774466    2.8303074640
C       -0.6811913213    1.3495790744    1.6332236834
C       -2.6694475002   -0.5585581516    2.1339364164
C       -4.4701540256   -0.6024412540    3.5213735214
C       -5.7970469325   -1.0163893167    4.0153400257
C        1.2703368204    2.6043375715    2.5743334391
C       -0.2087932812    3.6824362249    0.8357601221
C        0.3995761745    2.3693134762    1.3375258058
N       -3.7574167939   -1.3242953977    2.5344289135
O       -6.1430820753   -1.0740225870    5.1799780831
O       -6.6002800599   -1.4865175489    3.0304703854
H        0.0548212128   -0.0881379848    0.1873850865
H       -1.7100284845   -1.7683120959    0.6368885920
H       -1.7105680981    2.5230720210    3.1500828849
H       -4.1683927060    1.4122810498    4.3488603045
H        0.6783463077    3.0136870070    3.3984697524
H        2.0763461630    3.3071043308    2.3413370798
H        1.7190848465    1.6607123667    2.9006499538
H       -0.8491785534    4.1364095214    1.5978918699
H       -0.8084068562    3.4990794107   -0.0615400888
H        0.5838618799    4.3928422424    0.5809019849
H        1.0457782431    1.9791250003    0.5440075678
H       -4.0564460030   -2.2052913338    2.1250326746
H       -7.4164869869   -1.7541913231    3.4825295902
28   

C       -0.7185394801    0.1453879287    0.9037255324
C       -1.7220244601   -0.8037980251    1.1403045903
C       -1.6883400439    1.6049370739    2.5833895874
C       -3.8410039543    0.6292100642    3.6840221314
C       -2.6838801757    0.6492296177    2.8068738349
C       -0.6843125976    1.3621698833    1.6184168480
C       -2.6927678785   -0.5310201638    2.0960622200
C       -4.4920259588   -0.5742330348    3.4858596909
C       -5.8049862226   -0.9857437453    3.9977311689
C        1.2761931888    2.5902933671    2.5775807787
C       -0.1866721579    3.6965188619    0.8430123661
C        0.4076515374    2.3736486781    1.3357582995
N       -3.7876582533   -1.2907541668    2.4894548686
O       -6.2134288495   -0.8290928908    5.1335999578
O       -6.5195907865   -1.7063875451    3.0979954156
H        0.0369982373   -0.0660236406    0.1558385175
H       -1.7456044796   -1.7329514229    0.5851440443
H       -1.7011334483    2.5279570098    3.1496609755
H       -4.1645072910    1.4240966084    4.3453079312
H        0.6854248537    2.9990393740    3.4028876602
H        2.0898716644    3.2869521890    2.3530276167
H        1.7145378096    1.6397943973    2.8980202636
H       -0.8260061079    4.1495604735    1.6066010121
H       -0.7843841759    3.5263539898   -0.0581450172
H        0.6133932229    4.4018561487    0.5974147979
H        1.0531141924    1.9839578257    0.5414016409
H       -4.0987227122   -2.1664738645    2.0766548753
H       -7.3379601826   -1.9412102584    3.5645921881
28   

C       -0.7403430570    0.1702155952    0.8629818723
C       -1.7560256381   -0.7710051529    1.0783458401
C       -1.7069696853    1.6167230853    2.5558137531
C       -3.8732862278    0.6455670734    3.6338154792
C       -2.7145160939    0.6690201113    2.7584788581
C       -0.6981523069    1.3762693761    1.5952453460
C       -2.7310546427   -0.5010329540    2.0304779323
C       -4.5359977470   -0.5478606947    3.4122954464
C       -5.8264074028   -0.9786581975    3.9521444807
C        1.2661749038    2.5700635529    2.5905810835
C       -0.1656481100    3.7135178215    0.8542514221
C        0.4085132512    2.3782524250    1.3370405208
N       -3.8337497712   -1.2567753192    2.4094790516
O       -6.2991767223   -0.6495571103    5.0249264598
O       -6.4499838304   -1.8964074949    3.1706958257
H        0.0191200820   -0.0394117811    0.1185799939
H       -1.7847878904   -1.6925719280    0.5109146478
H       -1.7130858151    2.5310413882    3.1361596778
H       -4.1854099142    1.4266877309    4.3168181836
H        0.6715118963    2.9760151706    3.4144634816
H        2.0902142429    3.2597716177    2.3829666692
H        1.6901139346    1.6108397368    2.9043440751
H       -0.8083550504    4.1641369103    1.6164520013
H       -0.7552776964    3.5609658881   -0.0553400972
H        0.6448026584    4.4128125721    0.6260711509
H        1.0581492644    1.9907761238    0.5450085176
H       -4.1430886092   -2.1354253521    2.0008039369
H       -7.2667932032   -2.1119984615    3.6494177999
28   

C       -0.7424711067    0.2164508275    0.8118379149
C       -1.7697005434   -0.7160285259    1.0097465384
C       -1.6911117578    1.6429871441    2.5316589081
C       -3.8616785239    0.6727133667    3.6019861071
C       -2.7097387374    0.7037895107    2.7175975940
C       -0.6855630854    1.4081556094    1.5662885632
C       -2.7413312740   -0.4518969601    1.9669435531
C       -4.5400916984   -0.5068694271    3.3555514157
C       -5.7976079818   -0.9650496595    3.9413779777
C        1.2833791709    2.5726328144    2.5907564612
C       -0.1223274506    3.7447705182    0.8522116409
C        0.4346226594    2.4000101102    1.3281675756
N       -3.8492570260   -1.2042868872    2.3372984062
O       -6.3343521811   -0.5044209199    4.9328328499
O       -6.3297484574   -2.0337474835    3.2951001741
H        0.0149216589    0.0109379871    0.0641896341
H       -1.8089688897   -1.6271699459    0.4263306208
H       -1.6851013872    2.5456401365    3.1300022675
H       -4.1531786258    1.4343717782    4.3155368670
H        0.6865205019    2.9792774080    3.4126788629
H        2.1168218849    3.2546296506    2.3955363274
H        1.6939356020    1.6064321449    2.9008723972
H       -0.7685495440    4.1938251149    1.6123992201
H       -0.7044425370    3.6058815115   -0.0643864209
H        0.6966400220    4.4386372171    0.6383693955
H        1.0875568691    2.0126966652    0.5387753229
H       -4.1548090574   -2.0879523698    1.9361816916
H       -7.1404136287   -2.2396205947    3.7884544771
28   

C       -0.7819191622    0.2344676797    0.7772702662
C       -1.8239803044   -0.6845613172    0.9601145289
C       -1.7179913334    1.6568754842    2.5073607525
C       -3.9008748495    0.7017331899    3.5659915564
C       -2.7512417764    0.7309735841    2.6785079337
C       -0.7109336949    1.4170243252    1.5448249478
C       -2.7965063113   -0.4160177907    1.9151794759
C       -4.5963085683   -0.4641253137    3.3025064698
C       -5.8215452716   -0.9477713425    3.9326791651
C        1.2683499142    2.5402065703    2.5962840422
C       -0.1047017311    3.7504415375    0.8577558854
C        0.4270732646    2.3927633141    1.3253660176
N       -3.9126727272   -1.1597563107    2.2783024839
O       -6.4421167964   -0.3834280649    4.8158495214
O       -6.2440795721   -2.1388345869    3.4365057693
H       -0.0231857869    0.0249661257    0.0320933825
H       -1.8728189112   -1.5897165314    0.3681659819
H       -1.7004001990    2.5519054076    3.1168279755
H       -4.1728552736    1.4494343708    4.3017117070
H        0.6716408536    2.9489504089    3.4172685292
H        2.1141393742    3.2104903514    2.4139890979
H        1.6609887135    1.5648012394    2.9007555952
H       -0.7502607636    4.2022145536    1.6169037559
H       -0.6811955213    3.6292563588   -0.0648792194
H        0.7267777212    4.4333424703    0.6573574629
H        1.0802635990    2.0023522209    0.5377150257
H       -4.2107457369   -2.0525584500    1.8918953713
H       -7.0526760168   -2.3389843806    3.9356192853
28   

C       -0.7994862208    0.2664482341    0.7399867464
C       -1.8510723033   -0.6446460728    0.9071991955
C       -1.7286486022    1.6759069781    2.4843466372
C       -3.9174267811    0.7216335631    3.5317246204
C       -2.7712555373    0.7577628169    2.6400637934
C       -0.7199115911    1.4382651096    1.5229988071
C       -2.8246561269   -0.3787876698    1.8619304476
C       -4.6235517380   -0.4336223820    3.2503700097
C       -5.8116275527   -0.9527619262    3.9237487212
C        1.2641647142    2.5281350883    2.6014417106
C       -0.0832865099    3.7718179758    0.8664824717
C        0.4304717902    2.4036076708    1.3229359621
N       -3.9442386663   -1.1209381220    2.2175997812
O       -6.5321557814   -0.3307616817    4.6834922571
O       -6.1005622471   -2.2349958552    3.5841065929
H       -0.0392463921    0.0584266184   -0.0040694867
H       -1.9052779788   -1.5426813288    0.3049623310
H       -1.7035773233    2.5618341188    3.1067112552
H       -4.1728502395    1.4516281824    4.2907484999
H        0.6663112681    2.9349628818    3.4225366238
H        2.1187044266    3.1907435479    2.4323278163
H        1.6437585465    1.5452637361    2.8983775615
H       -0.7297904042    4.2218839321    1.6258463647
H       -0.6540745395    3.6668014181   -0.0616589094
H        0.7568703675    4.4479481255    0.6798241065
H        1.0852751779    2.0146179071    0.5359197988
H       -4.2287025118   -2.0231242041    1.8430840559
H       -6.9065111361   -2.4450025466    4.0834099377
28   

C       -0.8611261906    0.2760557892    0.7108639558
C       -1.9256372811   -0.6223054429    0.8646560599
C       -1.7672088060    1.6694185534    2.4800404211
C       -3.9605413343    0.7219725115    3.5239744369
C       -2.8222702831    0.7634211503    2.6227898364
C       -0.7635482862    1.4334935397    1.5129687517
C       -2.8938769416   -0.3582935676    1.8253491408
C       -4.6860709524   -0.4163111872    3.2232415021
C       -5.8386814728   -0.9680592267    3.9368512601
C        1.2287625261    2.4897057509    2.6133010574
C       -0.0916870593    3.7614811291    0.8779493963
C        0.4016747575    2.3840785929    1.3285992895
N       -4.0195388270   -1.0938758154    2.1753895504
O       -6.6632245739   -0.3301812168    4.5660720401
O       -5.9841459383   -2.3054907382    3.7582716279
H       -0.1045286146    0.0689448901   -0.0371515752
H       -1.9928774386   -1.5100970165    0.2487050715
H       -1.7275863608    2.5435875750    3.1180647349
H       -4.1913955973    1.4317547849    4.3094544537
H        0.6317479628    2.9003490826    3.4330712809
H        2.0934182144    3.1414072310    2.4534083110
H        1.5929718957    1.5000617637    2.9069800939
H       -0.7389517979    4.2135322179    1.6355132098
H       -0.6563375812    3.6698219114   -0.0553517726
H        0.7579930454    4.4286981474    0.7027161153
H        1.0568981316    1.9916715496    0.5436288307
H       -4.2971023344   -2.0004185497    1.8067833562
H       -6.7867165059   -2.5335808133    4.2549477464
28   

C       -0.8958473309    0.3007644139    0.6803677897
C       -1.9754847139   -0.5815799700    0.8209259438
C       -1.7866152837    1.6909622547    2.4596798466
C       -3.9938153491    0.7631082391    3.4915516086
C       -2.8566078643    0.8006027823    2.5892876884
C       -0.7827552340    1.4483342548    1.4944974724
C       -2.9432843880   -0.3113765924    1.7803927985
C       -4.7373286877   -0.3591525146    3.1767644894
C       -5.8680229722   -0.9306431795    3.9184847065
C        1.2198021774    2.4620420416    2.6171819631
C       -0.0673852990    3.7691354511    0.8830849041
C        0.3998135299    2.3802880666    1.3260793619
N       -4.0786631164   -1.0355689994    2.1227347129
O       -6.8039965676   -0.3109462785    4.3891141453
O       -5.8585705567   -2.2868306832    3.9318200284
H       -0.1391244910    0.0883059387   -0.0660228985
H       -2.0537546931   -1.4627367603    0.1968091046
H       -1.7346276411    2.5571286335    3.1076347340
H       -4.2058418592    1.4601534523    4.2934061216
H        0.6244137617    2.8766205222    3.4361436061
H        2.0964701438    3.1001332624    2.4681301394
H        1.5652280016    1.4641753192    2.9057002550
H       -0.7126228318    4.2256574220    1.6397019587
H       -0.6267193211    3.6941721256   -0.0548928804
H        0.7944436089    4.4235417694    0.7192757547
H        1.0538881180    1.9830028877    0.5426034496
H       -4.3522600216   -1.9441792284    1.7571910916
H       -6.6627414584   -2.5341125329    4.4163234706
28   

C       -0.9225933600    0.3168769088    0.6560033153
C       -2.0107891140   -0.5566325887    0.7845858948
C       -1.8016133190    1.6928552614    2.4521361682
C       -4.0162755048    0.7696781885    3.4731167595
C       -2.8801353908    0.8110496580    2.5698177109
C       -0.7992618282    1.4529000277    1.4846401389
C       -2.9766722367   -0.2892323838    1.7467819459
C       -4.7699200906   -0.3396920674    3.1436219910
C       -5.8940696780   -0.9315941741    3.8932503350
C        1.2088809350    2.4380242249    2.6240773757
C       -0.0601151423    3.7716130216    0.8966659881
C        0.3928458882    2.3749211712    1.3293644306
N       -4.1176861463   -1.0084220352    2.0803640763
O       -6.9383429236   -0.3764327842    4.1773857444
O       -5.7256676171   -2.2544803220    4.1336363015
H       -0.1671039471    0.1063597545   -0.0921921609
H       -2.0965677393   -1.4293461270    0.1496915027
H       -1.7415012667    2.5498854747    3.1114085568
H       -4.2164471326    1.4540891970    4.2885777300
H        0.6146702070    2.8515143089    3.4444240469
H        2.0921279898    3.0689204408    2.4834492913
H        1.5437829242    1.4345405582    2.9054396725
H       -0.7046047822    4.2270073087    1.6546040553
H       -0.6161132671    3.7097440200   -0.0442508096
H        0.8081286333    4.4197689185    0.7421794985
H        1.0462955426    1.9783678853    0.5449892106
H       -4.3916588454   -1.9114006170    1.7025463202
H       -6.5352032046   -2.5280214255    4.5941012141
28   

C       -0.9246726056    0.2880044083    0.6435239235
C       -1.9992305659   -0.6038821435    0.7579226387
C       -1.8371806498    1.6343522855    2.4456384407
C       -4.0482813151    0.6699306682    3.4391282235
C       -2.9026451294    0.7347730568    2.5486990711
C       -0.8247644682    1.4184659502    1.4827281091
C       -2.9750547587   -0.3601522483    1.7162951437
C       -4.7772240244   -0.4476294908    3.0966810807
C       -5.9288305161   -1.0575531594    3.8076997447
C        1.1706252444    2.4090839184    2.6359552826
C       -0.1198627381    3.7598961884    0.9378417782
C        0.3529017400    2.3610668875    1.3418862661
N       -4.1080097014   -1.0988019834    2.0332410276
O       -7.0651516508   -0.6275459136    3.8273465415
O       -5.6286840649   -2.2533739575    4.3661931438
H       -0.1615148092    0.0962465599   -0.1019359791
H       -2.0672055363   -1.4720188570    0.1146569171
H       -1.7950298230    2.4869543572    3.1119834312
H       -4.2708919535    1.3503247480    4.2519094365
H        0.5715616895    2.7958662630    3.4657683994
H        2.0440944782    3.0559079566    2.5071691695
H        1.5209798596    1.4049401743    2.8953419799
H       -0.7673378968    4.1924919448    1.7064672579
H       -0.6782300641    3.7090249607   -0.0023292619
H        0.7394045217    4.4221243824    0.7931256132
H        1.0097680501    1.9895119620    0.5481691897
H       -4.3739779994   -1.9902507377    1.6246453754
H       -6.4573151994   -2.5562405899    4.7703699512
28   

C       -0.8217962145    0.2400542398    0.7080051423
C       -1.8624536465   -0.6893307530    0.8349898779
C       -1.7635745609    1.5568307183    2.5171149949
C       -3.9601724292    0.5444208695    3.4978403269
C       -2.7970236878    0.6217171876    2.6307390321
C       -0.7540431406    1.3752448120    1.5439516809
C       -2.8371040167   -0.4778501202    1.8021170040
C       -4.6512399243   -0.5942563146    3.1606607866
C       -5.9479945077   -1.1089150896    3.6923408626
C        1.2361654496    2.4194875145    2.6491031812
C       -0.1534842674    3.7538733840    1.0173710280
C        0.3808895320    2.3654030471    1.3805932997
N       -3.9578250053   -1.2386893266    2.1092316953
O       -7.0409112536   -0.8423953158    3.2349022983
O       -5.8117749729   -1.9273975411    4.7599937038
H       -0.0626373653    0.0766678364   -0.0482290083
H       -1.9100861600   -1.5565469459    0.1886559414
H       -1.7494539460    2.4160544494    3.1760684861
H       -4.2459140007    1.2614176451    4.2574945169
H        0.6479632554    2.7657305805    3.5042609550
H        2.0800051239    3.1018829034    2.5073000960
H        1.6318847612    1.4244340732    2.8762453768
H       -0.7882445330    4.1521739977    1.8145275725
H       -0.7414929343    3.6996483333    0.0956186238
H        0.6772421986    4.4478581676    0.8555764224
H        1.0243828234    2.0326867769    0.5591637825
H       -4.2438555925   -2.0939248552    1.6412133150
H       -6.7168096821   -2.1770594810    5.0048993969
28   

C       -0.7439206982    0.1572875798    0.7589806926
C       -1.7460335415   -0.8104602506    0.9106145620
C       -1.6912247282    1.4398044767    2.5891294170
C       -3.8513081735    0.3746548659    3.5871694686
C       -2.6873640198    0.4681730205    2.7247174213
C       -0.6992228346    1.2956433634    1.5923576940
C       -2.7061626129   -0.6339632536    1.8992624391
C       -4.5177212593   -0.7890634660    3.2618941724
C       -5.8931500848   -1.1982705473    3.6370293352
C        1.2926308882    2.4020265504    2.6248763061
C       -0.2159164314    3.7073319069    1.0779219904
C        0.3858893893    2.3342679020    1.3939619638
N       -3.8084682523   -1.4199696602    2.2124623671
O       -6.8444208643   -1.1888765178    2.8768579809
O       -6.0403168703   -1.4929583362    4.9485448518
H        0.0002042895    0.0239533498   -0.0178021603
H       -1.7804571361   -1.6759024402    0.2610652599
H       -1.6985582418    2.3030947148    3.2428448240
H       -4.1830521425    1.1176677698    4.3018650602
H        0.7278035006    2.7086577740    3.5104337740
H        2.1011788948    3.1209411455    2.4599426153
H        1.7374192360    1.4202238701    2.8158933383
H       -0.8267151883    4.0713613233    1.9093957191
H       -0.8436984332    3.6449483369    0.1833085049
H        0.5803552138    4.4342306703    0.8894003614
H        1.0041589509    2.0401075756    0.5391369836
H       -4.1146454826   -2.2441551657    1.7024285107
H       -6.9828550009   -1.6956472519    5.0585042371
28   

C       -0.7579419270    0.1641608760    0.7396952146
C       -1.7583564036   -0.8059159918    0.8876180805
C       -1.6846071879    1.4183045655    2.5998626611
C       -3.8344114143    0.3388104427    3.6042226102
C       -2.6790877005    0.4445101666    2.7317000220
C       -0.7040770010    1.2897771548    1.5897045277
C       -2.7072940242   -0.6447544699    1.8895321575
C       -4.5059452877   -0.8219427994    3.2684075845
C       -5.8724523689   -1.2385256555    3.6315096434
C        1.2965765665    2.3858081487    2.6170232318
C       -0.2290758259    3.7081765057    1.1016531006
C        0.3779034824    2.3322015596    1.3942898938
N       -3.8073502281   -1.4343804539    2.2013736688
O       -6.7562650720   -1.4747885331    2.8241463212
O       -6.1182744032   -1.2205598529    4.9616026669
H       -0.0227034875    0.0429115202   -0.0474548597
H       -1.8004675688   -1.6612185943    0.2251875261
H       -1.6849395817    2.2717170009    3.2664740036
H       -4.1605203925    1.0714987385    4.3322040712
H        0.7401537568    2.6806554298    3.5118492392
H        2.1025573325    3.1078365736    2.4531283474
H        1.7444334156    1.4023062703    2.7913742149
H       -0.8324667649    4.0604137171    1.9435589589
H       -0.8653630588    3.6561700007    0.2123956727
H        0.5641610191    4.4388118860    0.9148011114
H        0.9882081794    2.0498654686    0.5298106330
H       -4.1307746085   -2.2420597127    1.6748470729
H       -7.0537186549   -1.4634518206    5.0491610693
28   

C       -0.7797352531    0.1994892046    0.7074153138
C       -1.7853578206   -0.7663973173    0.8463651168
C       -1.6867329251    1.4299930092    2.5930852334
C       -3.8314042601    0.3422325033    3.6013901004
C       -2.6862605665    0.4602411130    2.7164797268
C       -0.7133568168    1.3111139455    1.5747661034
C       -2.7266015449   -0.6152374397    1.8569288736
C       -4.5104849702   -0.8114995654    3.2529426883
C       -5.8466392577   -1.2737979431    3.6447136256
C        1.2973677040    2.3808104937    2.6116574958
C       -0.2233623022    3.7313696578    1.1161785652
C        0.3755536686    2.3482465647    1.3904108942
N       -3.8258793655   -1.4060724924    2.1674968965
O       -6.6656075215   -1.7429806067    2.8685574269
O       -6.1574039805   -1.0353122557    4.9399902879
H       -0.0496262340    0.0854075195   -0.0855586440
H       -1.8363515686   -1.6118526726    0.1719963992
H       -1.6763816029    2.2719576211    3.2740300409
H       -4.1416067625    1.0567204831    4.3541450545
H        0.7452201954    2.6687856268    3.5113454253
H        2.1079433725    3.0991965111    2.4545326795
H        1.7388978731    1.3922634787    2.7731813248
H       -0.8231937721    4.0764318179    1.9635924455
H       -0.8615301569    3.6942846355    0.2275227187
H        0.5740166796    4.4594066774    0.9370348800
H        0.9822703947    2.0725572509    0.5212721648
H       -4.1575850855   -2.2098153902    1.6391481685
H       -7.0704160309   -1.3480570341    5.0422307329
28   

C       -0.8191412285    0.2272797382    0.6715786334
C       -1.8334232413   -0.7304162733    0.8032396378
C       -1.7038804962    1.4415345994    2.5784259810
C       -3.8450890314    0.3524985424    3.5947048168
C       -2.7118432748    0.4796941461    2.6951717035
C       -0.7369675432    1.3263342116    1.5534606378
C       -2.7672351659   -0.5837428597    1.8212130635
C       -4.5345213537   -0.7925578969    3.2365307664
C       -5.8312240936   -1.3082785185    3.6743937770
C        1.2859690870    2.3634039566    2.6014534387
C       -0.2198965900    3.7442831156    1.1185285216
C        0.3639797593    2.3524588782    1.3797405912
N       -3.8663923671   -1.3734413929    2.1341205559
O       -6.5694137211   -1.9889497970    2.9756171731
O       -6.2046952389   -0.9015006340    4.9101984363
H       -0.0935717968    0.1156995053   -0.1259035862
H       -1.8951544327   -1.5677118810    0.1196293038
H       -1.6799576218    2.2729170850    3.2719239813
H       -4.1330556057    1.0473621049    4.3743037688
H        0.7373075560    2.6497578509    3.5037756539
H        2.1048204454    3.0737585914    2.4508282586
H        1.7161428804    1.3684655691    2.7542131376
H       -0.8168989096    4.0870777991    1.9688685210
H       -0.8576475576    3.7224093725    0.2290758980
H        0.5853067126    4.4655146116    0.9470877761
H        0.9680731046    2.0781553274    0.5083384166
H       -4.1998174136   -2.1830249427    1.6150630517
H       -7.0835703920   -1.2893507857    5.0484065204
28   

C       -0.8908734327    0.2300976494    0.6208648186
C       -1.9188698931   -0.7134184146    0.7474852905
C       -1.7422717705    1.4321051415    2.5507071220
C       -3.8808115058    0.3506523709    3.5824137867
C       -2.7634871820    0.4838178607    2.6633759317
C       -0.7848729722    1.3155517546    1.5169114352
C       -2.8420914997   -0.5664242820    1.7749219898
C       -4.5873763992   -0.7815025797    3.2157750104
C       -5.8371037687   -1.3473621823    3.7156515751
C        1.2532113838    2.3147244692    2.5758932424
C       -0.2276553661    3.7250709741    1.0953547978
C        0.3339330426    2.3235389009    1.3518065663
N       -3.9432575202   -1.3506575470    2.0936547526
O       -6.4818163694   -2.2064048139    3.1287967693
O       -6.2681295172   -0.8125063667    4.8822381759
H       -0.1720625142    0.1169859382   -0.1824996856
H       -1.9972020437   -1.5420428585    0.0550531664
H       -1.6982887543    2.2519858202    3.2568095346
H       -4.1368772401    1.0229424059    4.3924189129
H        0.7078637912    2.6074809999    3.4781432761
H        2.0842828705    3.0116604652    2.4295167191
H        1.6663333805    1.3122235699    2.7263198176
H       -0.8229337580    4.0720462046    1.9452360673
H       -0.8622520713    3.7169757310    0.2034205842
H        0.5889704690    4.4348950644    0.9305524028
H        0.9361849480    2.0432371282    0.4810381952
H       -4.2759734275   -2.1706022394    1.5901492717
H       -7.1027072986   -1.2687511939    5.0754415460
28   

C       -0.9242981138    0.2957630778    0.5687670339
C       -1.9643004631   -0.6367168089    0.6774076001
C       -1.7570470824    1.4679612511    2.5249650756
C       -3.8931746733    0.3776671001    3.5531632264
C       -2.7894558841    0.5299501104    2.6205540479
C       -0.8026223563    1.3604745836    1.4874098085
C       -2.8834675597   -0.4997280204    1.7098120229
C       -4.6110752842   -0.7411827637    3.1681267914
C       -5.8023309394   -1.3745190379    3.7238753191
C        1.2434416627    2.3144845064    2.5756824938
C       -0.2071452463    3.7656574865    1.1045746464
C        0.3328211879    2.3532169937    1.3453706960
N       -3.9849729845   -1.2852652357    2.0236562857
O       -6.3227331952   -2.3789757096    3.2558742072
O       -6.3065837539   -0.7606171367    4.8201214071
H       -0.2068649463    0.1888042747   -0.2366681868
H       -2.0524082134   -1.4517030368   -0.0298828998
H       -1.6990274810    2.2699955863    3.2502941870
H       -4.1200567084    1.0162631184    4.3983812753
H        0.6968254292    2.6040321101    3.4781785102
H        2.0859931882    3.0005026644    2.4440076690
H        1.6404525478    1.3040190840    2.7159388881
H       -0.8047040573    4.1081941900    1.9546793119
H       -0.8345244074    3.7787627959    0.2076181364
H        0.6204689505    4.4663501930    0.9564573946
H        0.9375650772    2.0760031190    0.4753414926
H       -4.3057215182   -2.1159644981    1.5298940051
H       -7.0822978266   -1.2878551057    5.0697343732
