29   

C        2.3220056578   -3.3713153018    0.4960856140
C        3.1980987706   -2.5967793854    1.2589490190
C        0.9445131195   -3.2466185979    0.6856205615
C        2.6974110174   -1.7147395468    2.2231506994
C        0.4430493984   -2.3633996658    1.6479499067
C       -0.1733534818   -3.4794186240    5.7544467377
C        0.4098256198   -4.7286296922    5.9782415015
C       -1.1143465787   -4.3114959546    3.6965882685
C        1.3108384069   -1.6114618286    2.4591259217
C       -0.9290604246   -3.2543778973    4.5998909324
C        0.2457884211   -5.7761639224    5.0634959974
C       -0.5294566755   -5.5650993525    3.9089480099
C        0.8672672910   -0.6482524085    3.4698439638
C       -0.3002261262   -0.4753195610    4.1185626354
O       -2.5075404435   -1.6521659616    3.0642589358
O       -2.4798291601   -1.2135972773    5.4586737932
S       -1.6897845897   -1.6260969964    4.2885705992
Cl       1.0007435888   -7.3234806411    5.3776840469
Cl      -0.7754746477   -6.8391751249    2.7340687118
H        2.7082427801   -4.0565241407   -0.2504010203
H        4.2678108466   -2.6790983721    1.1025215919
H        0.2596682051   -3.8253173968    0.0757724135
H        3.3994856543   -1.1232240641    2.8001523489
H       -0.6285402222   -2.2556246681    1.7179125099
H       -0.0402297105   -2.6824327913    6.4809621277
H        0.9977688034   -4.8947432311    6.8730812956
H       -1.7230560971   -4.1644226195    2.8087573662
H        1.6254189960    0.0750432030    3.7524034327
H       -0.4374724573    0.4184996545    4.7082057571
29   

C        2.1688333605   -3.5528025973    0.6819309941
C        3.0575576947   -2.9056575127    1.5439575056
C        0.8156316042   -3.2072310577    0.6939565873
C        2.5900918421   -1.9283867277    2.4300300133
C        0.3474808376   -2.2302779377    1.5793949087
C       -0.1068638961   -3.4261882181    5.7115846022
C        0.5518707222   -4.6442521981    5.8954184928
C       -0.9823596556   -4.2416654741    3.6188196434
C        1.2209392305   -1.6029353583    2.4840970223
C       -0.8670838065   -3.2074248089    4.5590219403
C        0.4602312169   -5.6659162112    4.9417847702
C       -0.3208083818   -5.4626065876    3.7899869204
C        0.7885850688   -0.5637590292    3.4267177528
C       -0.3743241938   -0.4020685206    4.0822573255
O       -2.5500290533   -1.6655012149    3.0763054235
O       -2.4862166860   -1.2413407319    5.4753893917
S       -1.7081014921   -1.6124482104    4.2834364270
Cl       1.3133216854   -7.1713987578    5.2033754166
Cl      -0.4758000747   -6.7037431418    2.5653388252
H        2.5293681616   -4.3123781949   -0.0029062254
H        4.1108037960   -3.1622393330    1.5259738142
H        0.1270522994   -3.6895675198    0.0090938834
H        3.2962029700   -1.4382125763    3.0909536307
H       -0.6971973322   -1.9509665369    1.5312092396
H       -0.0263130482   -2.6474942148    6.4651497634
H        1.1447258574   -4.8053465850    6.7878489738
H       -1.5898958098   -4.0980195870    2.7297019998
H        1.5488908677    0.1716656252    3.6695139086
H       -0.5408717636    0.5036682825    4.6453598951
29   

C        1.9549151199   -3.7091538107    0.8288070330
C        2.8092314836   -3.2514097364    1.8358161900
C        0.7022450323   -3.1144000966    0.6569597997
C        2.4073416923   -2.2072085649    2.6767166036
C        0.2978314442   -2.0742028138    1.5007866224
C       -0.0856480173   -3.3881518617    5.6851010854
C        0.6451906863   -4.5678994565    5.8469829793
C       -0.8671318543   -4.1929768972    3.5515170347
C        1.1372304989   -1.6222771799    2.5329554373
C       -0.8332823643   -3.1812849989    4.5220950716
C        0.6382096976   -5.5628834743    4.8611525129
C       -0.1337073283   -5.3750246341    3.7008700972
C        0.7369044206   -0.5324933946    3.4406843584
C       -0.4296955076   -0.3681635046    4.0831935455
O       -2.5434761660   -1.6832926632    3.0238445505
O       -2.5425220567   -1.2830472974    5.4335251945
S       -1.7324345754   -1.6162320164    4.2515431433
Cl       1.5875490255   -7.0148696494    5.0914765299
Cl      -0.1829500836   -6.5838057553    2.4356080736
H        2.2646893040   -4.5200697097    0.1788861398
H        3.7838601308   -3.7080946365    1.9659818763
H        0.0419925802   -3.4571527747   -0.1319864321
H        3.0802972585   -1.8656318653    3.4551399730
H       -0.6704230508   -1.6121857974    1.3394572827
H       -0.0650283552   -2.6267634811    6.4600258895
H        1.2317328427   -4.7180890043    6.7454444504
H       -1.4588056717   -4.0561595407    2.6507195117
H        1.5147256117    0.1854043776    3.6802553028
H       -0.6160014451    0.5356407886    4.6429342145
29   

C        1.8470416109   -3.7480609086    0.8906262958
C        2.6266529886   -3.3936797678    1.9956229837
C        0.6928444240   -3.0187492974    0.5912307028
C        2.2526323354   -2.3112453346    2.8003170364
C        0.3159872897   -1.9403983999    1.3991224947
C       -0.0781122864   -3.3634552342    5.6551662827
C        0.6730532961   -4.5294368403    5.8248934558
C       -0.8015848383   -4.1711232407    3.5019635005
C        1.0907881315   -1.5767877120    2.5123706319
C       -0.8077020324   -3.1650508548    4.4790623517
C        0.7022432781   -5.5202299849    4.8352924068
C       -0.0519676086   -5.3419452845    3.6619461260
C        0.6919943487   -0.4564548508    3.3922654672
C       -0.4509102876   -0.3416796510    4.0807140972
O       -2.5003457074   -1.6861457441    2.9417219504
O       -2.5850129619   -1.3127549263    5.3565299456
S       -1.7321621180   -1.6162468351    4.1967304098
Cl       1.6751371117   -6.9547830281    5.0765514354
Cl      -0.0588461282   -6.5489694903    2.3939207538
H        2.1348775484   -4.5885855632    0.2688349203
H        3.5194963593   -3.9617508603    2.2311861623
H        0.0853134648   -3.2896645291   -0.2651286044
H        2.8615255648   -2.0518905569    3.6590000742
H       -0.5844395313   -1.3837700477    1.1580033816
H       -0.0863137656   -2.6056909203    6.4338273497
H        1.2466134094   -4.6725047582    6.7329055780
H       -1.3746223910   -4.0381147125    2.5885949058
H        1.4530051762    0.2933523152    3.5829810432
H       -0.6456096292    0.5391056972    4.6731933987
29   

C        2.0812644459   -3.2008717907    0.8074135924
C        2.3630966301   -3.9910362094    1.9260918571
C        1.8244518814   -1.8357503049    0.9664061009
C        2.3931614368   -3.4154900668    3.2016116832
C        1.8527147245   -1.2614940804    2.2420048261
C       -0.8249578156   -3.9144595288    4.9266815132
C       -0.9392731563   -5.1886793665    4.3642042953
C       -1.0269841266   -2.9506483367    2.7257599409
C        2.1472752585   -2.0436623913    3.3688127183
C       -0.8487994543   -2.7819920554    4.1067159067
C       -1.0925264913   -5.3570377405    2.9821490175
C       -1.1463482881   -4.2223036000    2.1533360023
C        2.1380856025   -1.4559277123    4.7318931350
C        1.0608777457   -1.0821932333    5.4302754968
O       -0.8100273685   -0.0828868026    3.7617216858
O       -1.5529480656   -0.9114614202    5.9397598242
S       -0.6372767075   -1.1084610890    4.8050389797
Cl      -1.2112234398   -6.9708494963    2.3155809715
Cl      -1.3458951901   -4.3719228614    0.4204429253
H        2.0531291379   -3.6474436193   -0.1803914712
H        2.5505572683   -5.0519629511    1.8050241131
H        1.5965024941   -1.2211934748    0.1026049089
H        2.6000169211   -4.0396997773    4.0635249955
H        1.6361277380   -0.2040215138    2.3590374026
H       -0.7087575294   -3.8048656217    6.0014301180
H       -0.9079686241   -6.0636249556    5.0025877123
H       -1.0585753649   -2.0797588843    2.0768887732
H        3.0902048124   -1.4458305395    5.2525561261
H        1.1602105729   -0.7227887970    6.4429870741
29   

C        2.1000068456   -3.2793193114    0.8611411801
C        2.2728393509   -4.0141885105    2.0381577219
C        1.9395252709   -1.8916875229    0.9241414891
C        2.2877670053   -3.3612636486    3.2760795398
C        1.9575756902   -1.2397569649    2.1622229145
C       -0.7993051368   -3.9544823598    4.9175867916
C       -0.9078711997   -5.2112780815    4.3153914055
C       -1.0269134121   -2.9231090957    2.7495174135
C        2.1401816937   -1.9678322427    3.3463124774
C       -0.8393661696   -2.7967775439    4.1339282356
C       -1.0729238258   -5.3368071633    2.9299862831
C       -1.1430343633   -4.1768087544    2.1381740899
C        2.1264060470   -1.2895134311    4.6700026622
C        1.0602188145   -1.0368348903    5.4342764506
O       -0.9286198510   -0.0925639405    3.8835375599
O       -1.5321066985   -1.0225170693    6.0613925463
S       -0.6601556856   -1.1414302716    4.8820550577
Cl      -1.1860491362   -6.9293314856    2.2131624139
Cl      -1.3591890970   -4.2727323788    0.4034379884
H        2.0810470810   -3.7856094910   -0.0976622631
H        2.3854949070   -5.0914522640    1.9915504586
H        1.7953009987   -1.3200291021    0.0141144873
H        2.4097851882   -3.9405678178    4.1842869735
H        1.8173743742   -0.1643559694    2.2057816311
H       -0.6787100968   -3.8779018429    5.9947866877
H       -0.8651605397   -6.1060366241    4.9250708851
H       -1.0718467029   -2.0322324013    2.1290748597
H        3.0997569906   -1.0568200687    5.0898236194
H        1.1829347355   -0.6684731723    6.4412059500
29   

C        2.7883032067   -4.2957557383    2.0007114333
C        3.1455882580   -4.1035584301    3.3386401629
C        2.0482291534   -3.3161482060    1.3323334276
C        2.7582741725   -2.9364868623    4.0068926939
C        1.6646330550   -2.1491156830    2.0025144663
C       -0.3982656514   -4.1793695499    3.9962225282
C       -0.7766355552   -4.8744859587    2.8471973060
C       -1.7264166896   -2.2989480402    3.2794382002
C        2.0025143710   -1.9545791265    3.3505991127
C       -0.8571981138   -2.8759195527    4.2152499193
C       -1.6182487292   -4.2878158350    1.8958761889
C       -2.1038853024   -2.9853366100    2.1172434736
C        1.6164645780   -0.7049149725    4.0536402430
C        0.6689720958   -0.5680780713    4.9868592657
O       -1.4469008830   -1.3783682112    6.4010582664
O        0.5584985701   -2.7740346050    6.5355539573
S       -0.2950531633   -1.9359500964    5.6754086025
Cl      -2.0407991924   -5.1815085635    0.4518040067
Cl      -3.1576846447   -2.2037157967    0.9588661794
H        3.0871779898   -5.1998050978    1.4818960936
H        3.7239019051   -4.8573228536    3.8612731922
H        1.7697030909   -3.4598547579    0.2943424439
H        3.0369258484   -2.7967743448    5.0469470484
H        1.0902860923   -1.3962574446    1.4741130673
H        0.2717300687   -4.6465085153    4.7137165047
H       -0.4028770681   -5.8779168235    2.6826344247
H       -2.1057623386   -1.2947389070    3.4431842564
H        2.0700012856    0.2075031434    3.6800117346
H        0.4268860344    0.4032832587    5.3900445533
29   

C        2.8474054830   -4.2853830914    2.0180143313
C        3.0672228603   -4.1107180777    3.3872402916
C        2.2083544106   -3.2819086690    1.2844439543
C        2.6400282118   -2.9390194823    4.0219433503
C        1.7875299145   -2.1084723119    1.9203197368
C       -0.4114491103   -4.1920277613    3.9949101785
C       -0.8038593905   -4.8720755761    2.8415560070
C       -1.7303283288   -2.2944914223    3.3077142553
C        1.9831324431   -1.9310626064    3.2986739001
C       -0.8572747831   -2.8869505786    4.2299323452
C       -1.6495689915   -4.2696464231    1.9036923623
C       -2.1239991201   -2.9662902676    2.1427831246
C        1.5350846803   -0.6883072074    3.9660982485
C        0.6707270690   -0.5830064508    4.9832800024
O       -1.4104910374   -1.4096485462    6.4389635859
O        0.5998795037   -2.8000522652    6.5279988086
S       -0.2710334717   -1.9591506720    5.6882336597
Cl      -2.0924188421   -5.1455675143    0.4548382518
Cl      -3.1836096456   -2.1653091584    1.0030744638
H        3.1754700260   -5.1940396229    1.5255497769
H        3.5698046887   -4.8815185692    3.9608783387
H        2.0370542697   -3.4124006793    0.2217837756
H        2.8191560567   -2.8147624453    5.0855706804
H        1.2900834900   -1.3393889877    1.3398842207
H        0.2596284635   -4.6721170911    4.7027069683
H       -0.4392476332   -5.8765326701    2.6632773219
H       -2.0997186672   -1.2887607364    3.4842839519
H        1.8584956037    0.2400428185    3.5063551897
H        0.4396678930    0.3814109327    5.4090890604
29   

C        2.9381555175   -4.2200077467    1.9827390314
C        2.9751816578   -4.1077968483    3.3746933585
C        2.4433459746   -3.1624319875    1.2157296708
C        2.5064765156   -2.9457302140    3.9975422686
C        1.9814630765   -1.9985673315    1.8405215325
C       -0.4718361247   -4.1820179846    4.0738776072
C       -0.8817284812   -4.8997052215    2.9497125185
C       -1.7545490519   -2.2875814182    3.3140768953
C        1.9906428089   -1.8803797955    3.2396474813
C       -0.8906124547   -2.8597865477    4.2571467755
C       -1.7207678247   -4.3193156151    1.9919714728
C       -2.1677401891   -2.9980322998    2.1795915866
C        1.4740279099   -0.6565091255    3.8779540664
C        0.6641752122   -0.5463310133    4.9421104181
O       -1.4353545626   -1.3004043444    6.4079722477
O        0.5506762116   -2.7130206024    6.5624305755
S       -0.2983530812   -1.8894857945    5.6842542932
Cl      -2.1929043519   -5.2460493697    0.5845516821
Cl      -3.2206118698   -2.2239609703    1.0153127731
H        3.2978628206   -5.1213901164    1.4990633042
H        3.3709840278   -4.9189558296    3.9755962752
H        2.4153334338   -3.2438813631    0.1348961279
H        2.5619335781   -2.8719105720    5.0783563185
H        1.5947660947   -1.1900224188    1.2301284421
H        0.1876941602   -4.6487532193    4.8011823317
H       -0.5398289731   -5.9183875623    2.8113303977
H       -2.1050993052   -1.2691954004    3.4523360135
H        1.7213453707    0.2721382762    3.3736795941
H        0.4562763578    0.4248092623    5.3647916714
29   

C        3.0358064759   -4.0341724820    1.7318753521
C        2.7687047416   -4.1483471867    3.0970776897
C        2.8214727041   -2.8153139269    1.0865687643
C        2.2771234725   -3.0503917830    3.8117232414
C        2.3319147015   -1.7182541908    1.8038850406
C       -0.6795806134   -4.3060533654    4.3343949381
C       -1.1066373057   -5.1047700951    3.2727225103
C       -1.5975680460   -2.3706148260    3.2274303809
C        2.0358168978   -1.8186730847    3.1748676121
C       -0.9101461989   -2.9258693834    4.3150794097
C       -1.7733942750   -4.5475774466    2.1756357742
C       -2.0245006703   -3.1630131678    2.1541795263
C        1.4875024921   -0.6491378751    3.8708062028
C        0.6529315345   -0.5596063127    4.9213517992
O       -1.4770987194   -1.2550020641    6.3676411768
O        0.4920009630   -2.6577650066    6.6277613112
S       -0.3296151177   -1.8751239557    5.6885318212
Cl      -2.2816664861   -5.5825634837    0.8590994148
Cl      -2.8567063639   -2.4137883907    0.8090157532
H        3.4147387636   -4.8853924495    1.1772135389
H        2.9498536376   -5.0870847674    3.6082301352
H        3.0321012862   -2.7195955370    0.0272782750
H        2.1182103201   -3.1656702815    4.8757547141
H        2.1657947895   -0.7841830741    1.2787339423
H       -0.1628278948   -4.7589562496    5.1770994614
H       -0.9192175493   -6.1717241796    3.2951889262
H       -1.8019099319   -1.3047102284    3.2040374617
H        1.7648599264    0.3052555072    3.4347003348
H        0.4489584764    0.4115618515    5.3464203763
29   

C        3.3431328655   -3.9362527844    1.7049331458
C        2.8302861386   -4.1448918714    2.9852826911
C        3.2553515507   -2.6701254080    1.1267870296
C        2.2226000431   -3.0939809021    3.6813657899
C        2.6481496131   -1.6207099749    1.8248541802
C       -0.7889883196   -4.3438478146    4.3990077512
C       -1.3004523137   -5.1636909478    3.3917692144
C       -1.7282160434   -2.4208654700    3.2878797002
C        2.1088345871   -1.8098534557    3.1117901053
C       -0.9889235426   -2.9594785362    4.3498825420
C       -2.0230076562   -4.6240623221    2.3213244068
C       -2.2412319845   -3.2348258898    2.2699768999
C        1.4424836690   -0.6768155944    3.7569882841
C        0.6016603581   -0.5815683806    4.8046188615
O       -1.4303438829   -1.2475405194    6.3943534169
O        0.5509002012   -2.6439324003    6.5701903890
S       -0.3236132724   -1.8816674930    5.6627896104
Cl      -2.6428120056   -5.6864433275    1.0762276287
Cl      -3.1422956591   -2.5067604801    0.9577927597
H        3.8127148942   -4.7512934109    1.1654450174
H        2.9102456634   -5.1223350478    3.4473660181
H        3.6554026458   -2.5001666453    0.1334518018
H        1.8803459606   -3.2988762816    4.6836052600
H        2.5860854097   -0.6501946831    1.3451563944
H       -0.2363442158   -4.7846817997    5.2253024579
H       -1.1394952439   -6.2342898704    3.4377646493
H       -1.9113681196   -1.3517091733    3.2432531413
H        1.6711918993    0.2821573790    3.3031761748
H        0.3527388753    0.4012083514    5.1759377803
29   

C        2.8480716817   -2.1961286587    0.3981604710
C        1.4892035757   -2.1444645431    0.7054601614
C        3.7858451511   -1.8886358559    1.3823644951
C        1.0691152271   -1.7926639028    1.9932226473
C        3.3631074237   -1.5369203320    2.6687513779
C       -0.7088836487   -4.1786412462    5.3647503036
C       -0.6499513591   -5.5528834059    5.1236572221
C       -1.4878994913   -3.8356425114    3.1090311813
C        1.9959776804   -1.4836688375    3.0097179211
C       -1.1134191509   -3.3027487350    4.3517656831
C       -0.9991538477   -6.0817159312    3.8753943014
C       -1.4268043613   -5.2115763633    2.8559780052
C        1.6517682300   -1.1550317751    4.3938911743
C        0.5039679391   -1.0449878674    5.0926639046
O       -1.6783368910   -0.7795721005    3.4766254028
O       -2.0412979443   -1.2536951079    5.8383527664
S       -1.1947590091   -1.5058978712    4.6623260297
Cl      -0.9046454827   -7.8095973793    3.6128326938
Cl      -1.8861410864   -5.8177831780    1.2794267204
H        3.1721091868   -2.4700786482   -0.5997485473
H        0.7535187449   -2.3732180488   -0.0575292294
H        4.8443980739   -1.9248273480    1.1505782851
H        0.0082193048   -1.7504990763    2.1582100052
H        4.1205463910   -1.3111382535    3.4110473227
H       -0.4430627022   -3.7917987265    6.3448258633
H       -0.3324779042   -6.2241926534    5.9129354741
H       -1.8400566046   -3.1767612349    2.3201629465
H        2.5178851480   -0.9047259935    4.9977998144
H        0.5606723780   -0.6501710321    6.0958864117
29   

C        2.5737042254   -2.6838900876    0.6592738235
C        1.2555810652   -2.2934618805    0.8950608619
C        3.5375836000   -2.4841017076    1.6474502963
C        0.9003021654   -1.7157603927    2.1189710360
C        3.1794533358   -1.9070694177    2.8708054333
C       -0.3692636885   -4.1254123144    5.3946493271
C       -0.1334512550   -5.4672090780    5.0870671653
C       -1.3049998820   -3.8081784051    3.1954783015
C        1.8521548331   -1.5215584822    3.1399369982
C       -0.9433453962   -3.2774989034    4.4426907699
C       -0.4703185402   -5.9901984207    3.8325018897
C       -1.0668832072   -5.1496541365    2.8753588455
C        1.5406387527   -0.9859316772    4.4666903558
C        0.3870297600   -0.8071182444    5.1389706228
O       -1.9173081073   -0.8440461091    3.7014056981
O       -2.0349696984   -1.4123831295    6.0648054025
S       -1.2495257694   -1.5206135687    4.8259749438
Cl      -0.1492972066   -7.6750374152    3.4845287632
Cl      -1.5155154802   -5.7490858291    1.2931191919
H        2.8478569556   -3.1335370771   -0.2886596338
H        0.5048356170   -2.4302148152    0.1247041378
H        4.5648302815   -2.7811209432    1.4682457080
H       -0.1209768470   -1.3886488878    2.2346791438
H        3.9483405627   -1.7759969154    3.6240415692
H       -0.1072568540   -3.7417764273    6.3769244604
H        0.3155698804   -6.1176023502    5.8282729793
H       -1.7801061663   -3.1720281272    2.4537969646
H        2.4138765515   -0.6576681031    5.0211663194
H        0.4082754749   -0.2335001122    6.0532995038
29   

C        2.3665366816   -2.8756690878    0.7558143261
C        1.1397760369   -2.2297744159    0.9151884861
C        3.3044394195   -2.8398223852    1.7888692168
C        0.8467038009   -1.5625741660    2.1097194451
C        3.0092239806   -2.1707642799    2.9819709344
C       -0.2860191212   -4.0824338021    5.3888581680
C        0.0353275769   -5.4020036095    5.0621141859
C       -1.1457723685   -3.7638832590    3.1594256205
C        1.7694638624   -1.5350269365    3.1722012215
C       -0.8641238940   -3.2440852380    4.4312329000
C       -0.2184437354   -5.9113729582    3.7823852195
C       -0.8206317797   -5.0816409479    2.8196342826
C        1.4908088535   -0.8916382573    4.4613580667
C        0.3362431087   -0.7085524134    5.1266550653
O       -1.9683295895   -0.8636080325    3.7076790388
O       -2.0442455018   -1.4450044977    6.0721067642
S       -1.2625266925   -1.5088143638    4.8276569152
Cl       0.2136099832   -7.5656938989    3.4093497989
Cl      -1.1648263056   -5.6632993048    1.2048908065
H        2.5918445712   -3.3962933389   -0.1683706378
H        0.4140386329   -2.2391177187    0.1095809815
H        4.2613128313   -3.3349500933    1.6673667787
H       -0.0974671172   -1.0391978125    2.1829807067
H        3.7498253747   -2.1654955359    3.7739122392
H       -0.0847065011   -3.7074480459    6.3886253489
H        0.4887908843   -6.0449336117    5.8070042622
H       -1.6189363197   -3.1340786081    2.4112412038
H        2.3722650268   -0.5375213230    4.9862005766
H        0.3328208298   -0.0893194325    6.0108380020
29   

C        2.1200497287   -2.9628666250    0.8077642436
C        1.0734938621   -2.0426705262    0.9002504160
C        2.9596218111   -3.1692271909    1.9048963946
C        0.8578452998   -1.3431125841    2.0927729486
C        2.7462723392   -2.4634529050    3.0944103858
C       -0.2636135804   -4.0372386596    5.3840446983
C        0.1404162554   -5.3345066390    5.0587381991
C       -0.9881460527   -3.7171835744    3.1073748056
C        1.6814244415   -1.5556637811    3.2119421285
C       -0.8137225322   -3.2079306270    4.4022722464
C       -0.0031993131   -5.8305442246    3.7567482033
C       -0.5811371779   -5.0124939183    2.7696982455
C        1.4503236379   -0.8541780291    4.4870516315
C        0.2923686732   -0.6566461929    5.1360410143
O       -1.9499660922   -0.8557549930    3.6337041047
O       -2.1081052067   -1.4401640694    5.9996121412
S       -1.2801018170   -1.4855040834    4.7844352265
Cl       0.5378259426   -7.4527910910    3.3850976944
Cl      -0.7883744103   -5.5785022774    1.1261898953
H        2.2817933939   -3.5120046837   -0.1132253511
H        0.4260216289   -1.8693761549    0.0478566258
H        3.7748173444   -3.8805854963    1.8351795497
H        0.0491124192   -0.6215330355    2.1373784747
H        3.4027160195   -2.6421673174    3.9385895758
H       -0.1419013331   -3.6698640390    6.3993675665
H        0.5759528672   -5.9691194345    5.8212335260
H       -1.4323762833   -3.0922560285    2.3377255110
H        2.3446290310   -0.5216283511    5.0041356258
H        0.2665843414   -0.0297613394    6.0142553218
29   

C        2.0209847713   -2.9779176603    0.8329864050
C        1.1113941765   -1.9175482402    0.8655146018
C        2.7467454236   -3.3050866608    1.9815408602
C        0.9200584754   -1.1942870457    2.0480045003
C        2.5583409527   -2.5763703711    3.1613949834
C       -0.2694113335   -4.0090804118    5.3802666124
C        0.1551614628   -5.3037192789    5.0701553304
C       -0.9163638424   -3.6953499648    3.0791187004
C        1.6295380704   -1.5256280174    3.2132946678
C       -0.7917869123   -3.1844568282    4.3792858655
C        0.0573874486   -5.8026735617    3.7650362444
C       -0.4932201314   -4.9900305509    2.7581176093
C        1.4232965841   -0.7666093958    4.4665115469
C        0.2768085410   -0.6301812098    5.1448541026
O       -1.9034348381   -0.8369342597    3.5614489650
O       -2.1521470598   -1.4168480110    5.9238809484
S       -1.2795987444   -1.4626291854    4.7401603724
Cl       0.6222702768   -7.4213727550    3.4137058149
Cl      -0.6458686314   -5.5622114790    1.1106838035
H        2.1630018950   -3.5448270010   -0.0804663788
H        0.5500134372   -1.6554954276   -0.0244269895
H        3.4532295245   -4.1271340677    1.9587021126
H        0.2105850366   -0.3725338038    2.0587688196
H        3.1244310211   -2.8437928152    4.0464926973
H       -0.1835834053   -3.6396602201    6.3984942057
H        0.5705843889   -5.9342379243    5.8472039175
H       -1.3331654327   -3.0717741389    2.2931550983
H        2.3186966755   -0.3770076979    4.9399815232
H        0.2399718597   -0.0296205075    6.0407816480
29   

C        1.9874175774   -3.0003514036    0.8745150590
C        1.1729493776   -1.8650581416    0.8371463901
C        2.6058761764   -3.3719569185    2.0715385692
C        0.9729124730   -1.1076883991    1.9966991920
C        2.4057449364   -2.6112978474    3.2290355713
C       -0.2600924360   -4.0229842422    5.3990053551
C        0.1633921334   -5.3144603589    5.0735830964
C       -0.9072013663   -3.6820011113    3.1013469308
C        1.5741603006   -1.4811642216    3.2071219398
C       -0.7828978927   -3.1866553860    4.4077815507
C        0.0622171366   -5.7991742493    3.7633055859
C       -0.4887846462   -4.9748274007    2.7661613042
C        1.3733435136   -0.6667190348    4.4319323276
C        0.2687478577   -0.6225120063    5.1838498702
O       -1.9159930492   -0.8425011822    3.6172683746
O       -2.1440977366   -1.4425488949    5.9781369579
S       -1.2798097974   -1.4713238315    4.7877111302
Cl       0.6240699371   -7.4147799585    3.3932062292
Cl      -0.6474369766   -5.5303748823    1.1135213587
H        2.1375074752   -3.5919976015   -0.0218067223
H        0.6924350146   -1.5713468888   -0.0894624977
H        3.2373270100   -4.2526646265    2.1035659242
H        0.3339067785   -0.2306893672    1.9593024285
H        2.8886775116   -2.9101204027    4.1525199467
H       -0.1740887470   -3.6657590129    6.4215723030
H        0.5792669824   -5.9543171528    5.8427795532
H       -1.3212006368   -3.0477875569    2.3223187401
H        2.2515846996   -0.1575649207    4.8155739129
H        0.2458649450   -0.0465845144    6.0961996663
29   

C        2.0008784156   -3.1045978443    0.9056339494
C        1.2681995526   -1.9229038280    0.7620575528
C        2.5022281205   -3.4623485130    2.1601606921
C        1.0360326527   -1.1028048521    1.8720927091
C        2.2661488728   -2.6412727692    3.2684747801
C       -0.2207354598   -4.0657484167    5.3690326681
C        0.1883896341   -5.3473685883    4.9895396624
C       -0.9545800660   -3.6573844300    3.1082352353
C        1.5203713477   -1.4595771127    3.1377556883
C       -0.7797991932   -3.2005962012    4.4230960752
C        0.0354104729   -5.7937290956    3.6705208208
C       -0.5527783552   -4.9405687152    2.7199206200
C        1.2976309745   -0.5725293548    4.3104135501
C        0.2614730286   -0.5972849427    5.1532333188
O       -2.0314674667   -0.8788826285    3.7707719446
O       -2.0448359998   -1.5168686350    6.1299564582
S       -1.2802176415   -1.5036127345    4.8727563891
Cl       0.5799874842   -7.3979503789    3.2316132069
Cl      -0.7778270841   -5.4482044495    1.0595488464
H        2.1776566808   -3.7431526018    0.0471617607
H        0.8778779760   -1.6413491979   -0.2095848628
H        3.0696780842   -4.3789638331    2.2750754043
H        0.4636492306   -0.1884363903    1.7525359337
H        2.6586199898   -2.9279751920    4.2375457153
H       -0.0985190978   -3.7398046913    6.3984291925
H        0.6316855025   -6.0103088633    5.7230888808
H       -1.3981188485   -3.0006727930    2.3648405870
H        2.1082885230    0.1095243689    4.5459245710
H        0.2687853332    0.0038679076    6.0494555952
29   

C        3.0349360678   -3.5152459001    2.1410921427
C        1.9431756054   -3.0684832786    1.3899589403
C        3.3210254016   -2.9209125441    3.3742499488
C        1.1432099450   -2.0243885056    1.8682491589
C        2.5189018066   -1.8790041097    3.8530743341
C        0.1962008838   -4.2880833657    4.3855043228
C        0.1131051637   -5.3007931076    3.4293551897
C       -1.8098592357   -3.2957256283    3.4888045277
C        1.4311536507   -1.4136391991    3.0994111207
C       -0.7574984867   -3.2649358470    4.4139099371
C       -0.9187112207   -5.3152774743    2.4845605825
C       -1.8957817721   -4.3026303983    2.5177150964
C        0.5522199119   -0.3315478905    3.6110391879
C       -0.3455938780   -0.4263983433    4.5971876953
O       -1.8624943592   -1.7344608722    6.3626948792
O        0.5498774493   -2.1141403293    6.5033451017
S       -0.6061241537   -1.8994495645    5.6153834291
Cl      -0.9669134298   -6.5848991659    1.2811162833
Cl      -3.2067048627   -4.2720300998    1.3584987317
H        3.6560492503   -4.3227401827    1.7696805117
H        1.7125278677   -3.5338514929    0.4381967181
H        4.1627799654   -3.2672202169    3.9635581994
H        0.2923886975   -1.6936197302    1.2829769881
H        2.7382975236   -1.4320134805    4.8179325807
H        1.0161157519   -4.2854365062    5.0993808459
H        0.8654175212   -6.0800752221    3.4099724473
H       -2.5686226385   -2.5192156933    3.5088611764
H        0.5569706809    0.5917424736    3.0406828138
H       -0.9805478061    0.4101057902    4.8458347685
29   

C        3.0799949461   -3.5025374981    2.1267461631
C        2.0582946120   -3.0169431776    1.3050049284
C        3.2537511823   -2.9708293995    3.4080228669
C        1.2137728298   -1.9989771614    1.7625588275
C        2.4052087227   -1.9575778932    3.8675262588
C        0.1762330840   -4.3086851361    4.4129488097
C        0.0872425293   -5.3169426484    3.4526813512
C       -1.8240546456   -3.3015060898    3.5205483032
C        1.3783338008   -1.4600618123    3.0493728685
C       -0.7699362936   -3.2786386178    4.4436099285
C       -0.9458492542   -5.3226608367    2.5091312802
C       -1.9178983078   -4.3054949703    2.5475921176
C        0.4625115355   -0.3997601923    3.5265953024
C       -0.3440239897   -0.4472087316    4.5943177991
O       -1.8525505736   -1.7263925481    6.3892529806
O        0.5579059461   -2.1186797160    6.5177928761
S       -0.6024483728   -1.9061353211    5.6350506559
Cl      -1.0024206809   -6.5875336577    1.3010862588
Cl      -3.2314476975   -4.2645099428    1.3916939470
H        3.7366568528   -4.2885579740    1.7707136612
H        1.9184786302   -3.4303074735    0.3124489785
H        4.0460254878   -3.3414624813    4.0489019570
H        0.4208685764   -1.6361609657    1.1179697742
H        2.5486010450   -1.5534889422    4.8650153728
H        0.9965810518   -4.3135232268    5.1262520755
H        0.8355899686   -6.0999249740    3.4290034625
H       -2.5771260991   -2.5195451891    3.5426519513
H        0.3552190507    0.4620827433    2.8758102550
H       -0.9511500675    0.4044032206    4.8607161667
29   

C        3.1689465154   -3.4158309506    2.0462332579
C        2.2470920253   -2.8246831931    1.1776742779
C        3.2050532622   -3.0293509692    3.3887706275
C        1.3589735640   -1.8526162543    1.6520216687
C        2.3131693284   -2.0620431579    3.8646471106
C        0.1131417576   -4.3359748748    4.4587772571
C        0.0098295185   -5.3603557550    3.5171265602
C       -1.8622979303   -3.3077832341    3.5357797001
C        1.3698433411   -1.4732091673    3.0057975980
C       -0.8131281707   -3.2874402288    4.4642718484
C       -1.0200161829   -5.3657353419    2.5698379263
C       -1.9721242335   -4.3293301034    2.5833500334
C        0.4228466449   -0.4465999240    3.4780043970
C       -0.3341251942   -0.4599271462    4.5854622072
O       -1.8963331862   -1.6879745440    6.3685873234
O        0.4997049503   -2.1272793161    6.5482459436
S       -0.6372526919   -1.9021024945    5.6388844389
Cl      -1.0996635773   -6.6563198990    1.3905745283
Cl      -3.2826217547   -4.2881770509    1.4239710087
H        3.8593390539   -4.1664076602    1.6776869309
H        2.2203539354   -3.1191579754    0.1345265086
H        3.9283134861   -3.4733890107    4.0636660430
H        0.6486215110   -1.4046811292    0.9660173473
H        2.3708087430   -1.7594040555    4.9048914858
H        0.9269520188   -4.3457246960    5.1794719485
H        0.7418358356   -6.1590503799    3.5129969748
H       -2.6012761606   -2.5121738004    3.5400048992
H        0.2611990772    0.3873903926    2.8025819012
H       -0.9102381766    0.4109997994    4.8584912055
29   

C        3.2150492595   -3.2063822008    1.8146982546
C        2.4537222857   -2.3918973346    0.9729653083
C        3.0626786915   -3.1068686578    3.1996480743
C        1.5313385569   -1.4898784386    1.5150425883
C        2.1396933892   -2.2064748475    3.7427216139
C       -0.0128553130   -4.4295136579    4.7469970348
C       -0.0996697090   -5.5370012188    3.9023135770
C       -1.7679407398   -3.3538793841    3.4915067726
C        1.3408195966   -1.4058988107    2.9079785998
C       -0.8395069452   -3.3194419808    4.5406057957
C       -1.0113847169   -5.5630457182    2.8408222664
C       -1.8582888932   -4.4581897351    2.6345058814
C        0.3671113208   -0.4334560458    3.4188229611
C       -0.4028945394   -0.4581983779    4.5205270722
O       -1.9937776449   -1.6287038236    6.3119731981
O        0.3923038534   -2.0198712790    6.5865671060
S       -0.7132748021   -1.8592905896    5.6265417864
Cl      -1.0804052610   -6.9666548226    1.7977441524
Cl      -3.0189949150   -4.4383423044    1.3245995276
H        3.9300855983   -3.9052252945    1.3949597292
H        2.5783692146   -2.4589339962   -0.1020018560
H        3.6684372048   -3.7199632570    3.8573714389
H        0.9505182807   -0.8668315358    0.8439728637
H        2.0778736742   -2.1218381487    4.8199869743
H        0.7024154630   -4.4298706094    5.5658661280
H        0.5480174195   -6.3896793032    4.0679403067
H       -2.4306236987   -2.5095436845    3.3285086488
H        0.2042641100    0.4250071431    2.7749845041
H       -0.9893702805    0.4122869710    4.7728653177
29   

C        3.4620708245   -3.0065233406    1.7369229592
C        2.7925324074   -2.0836190223    0.9314268199
C        3.1263360532   -3.1172966026    3.0875082412
C        1.7791146221   -1.2848498101    1.4726140760
C        2.1128952061   -2.3193097075    3.6298265389
C       -0.0948378241   -4.4990426754    4.8131097767
C       -0.2639739621   -5.6467841365    4.0369149891
C       -1.8964630981   -3.4403529803    3.6100249400
C        1.4007154955   -1.4117926201    2.8253416686
C       -0.9041048001   -3.3777303712    4.5976839503
C       -1.2427235872   -5.7030262678    3.0378494269
C       -2.0710548957   -4.5858848590    2.8232695304
C        0.3485800079   -0.5186111927    3.3172241204
C       -0.4185660792   -0.5318434065    4.4236353826
O       -1.9391840490   -1.5880224497    6.3384556373
O        0.4474116407   -2.0146354397    6.5273897044
S       -0.6950288631   -1.8740289089    5.6085686093
Cl      -1.4191403489   -7.1597827817    2.0840024541
Cl      -3.3156208732   -4.6031958076    1.5925689814
H        4.2484248511   -3.6252330274    1.3189251196
H        3.0600569786   -1.9848848214   -0.1146524801
H        3.6620939457   -3.8133861036    3.7230009035
H        1.2775889382   -0.5739743564    0.8253130621
H        1.9268665942   -2.4022729189    4.6894619497
H        0.6660125649   -4.4803576822    5.5896449891
H        0.3683811627   -6.5095539674    4.2098811039
H       -2.5484907979   -2.5881555096    3.4441826653
H        0.1412864908    0.3219394854    2.6626947755
H       -1.0366737907    0.3280665491    4.6336440926
29   

C        2.4745838921   -3.0687440235    0.1960150496
C        3.2869201806   -2.1549219368    0.8681619159
C        1.1476595660   -3.2354088709    0.5942752080
C        2.7752897848   -1.4186723338    1.9424313075
C        0.6346480087   -2.4991535658    1.6680051815
C       -0.3630711194   -3.5505177015    5.8165724244
C        0.0838948609   -4.8344075174    6.1365612283
C       -1.3061744944   -4.4104930961    3.7710085881
C        1.4434006004   -1.5927882359    2.3768946470
C       -1.0500734362   -3.3227616247    4.6195262066
C       -0.1506971910   -5.9149708468    5.2778123693
C       -0.8579170048   -5.7002549356    4.0808558323
C        1.0039482807   -0.7582949509    3.4965637351
C       -0.1472019334   -0.6230432418    4.1848405518
O       -2.3127491483   -1.6416310995    2.8825433616
O       -2.5232243731   -1.1545108657    5.2592966635
S       -1.6402240301   -1.6491596508    4.1922129764
Cl       0.4321686011   -7.5067174485    5.7137108880
Cl      -1.1892027905   -7.0154253695    2.9742225646
H        2.8683868385   -3.6395669395   -0.6376347511
H        4.3153580590   -2.0141953456    0.5550495731
H        0.5068893261   -3.9304663493    0.0631635451
H        3.4317993439   -0.7137034581    2.4401332106
H       -0.4045729383   -2.6437591437    1.9028609894
H       -0.1778337538   -2.7289821230    6.5031783451
H        0.6186133584   -5.0021664065    7.0640681556
H       -1.8675377692   -4.2607791858    2.8527083319
H        1.7612129618   -0.0578196281    3.8333892345
H       -0.2240036880    0.1910018213    4.8898404424
