23   

C       -4.8409320359   -6.8666182249   -2.0437480491
C        1.4206106159   -4.7069819804    3.1312780093
C       -3.3355728355   -4.8946904544   -1.4716640763
C        0.9613369563   -5.3960108566    2.0555514827
C       -3.7801737572   -6.5185408359    0.1617822198
C       -4.0157958079   -6.1359751181   -1.1310943229
C       -2.5758945630   -4.3762083332   -0.4440670977
C        1.1332427122   -3.2975373020    3.2438437003
C       -0.0647831984   -3.3330525303    1.2810265908
C       -1.8558197225   -3.1092718631   -0.4969829350
C       -0.8855133087   -2.6259284124    0.3053439557
N       -5.5086414342   -7.4650350067   -2.7867836732
N        0.4170010551   -2.6408156594    2.2684796372
N        0.2065455369   -4.6924847735    1.1187961506
O        1.5025466430   -2.6887224774    4.2329331311
S       -2.7251384049   -5.3939766420    1.0030626259
H        1.9987008471   -5.1759168235    3.9147748546
H       -3.4315887704   -4.4243392300   -2.4450063088
H        1.1798834657   -6.4558935225    1.9468266056
H       -4.1970203313   -7.4086952310    0.6194282862
H       -2.1489934846   -2.4494977265   -1.3076483859
H       -0.7213671208   -1.5555027594    0.2807747675
H       -0.1484287814   -5.1250063814    0.2736622357
23   

C       -4.5115807601   -7.0191523232   -1.9901267016
C        1.4587351511   -4.7893602174    3.0784327011
C       -3.1738407547   -4.9317808196   -1.4118557403
C        0.8654419606   -5.4515703117    2.0526496604
C       -3.7974683008   -6.4137499459    0.2985595905
C       -3.8544699806   -6.1663689406   -1.0474823906
C       -2.6029852662   -4.2822133003   -0.3396613593
C        1.2847136389   -3.3615269886    3.1936080987
C       -0.0576321801   -3.3227145829    1.3262377195
C       -1.8925396744   -3.0039293597   -0.3854846690
C       -0.8861604128   -2.5637883956    0.3957690864
N       -5.0417204111   -7.7169813182   -2.7568873988
N        0.5443707671   -2.6610233193    2.2676670323
N        0.0937820651   -4.7013855916    1.1677316402
O        1.7779519919   -2.7731485803    4.1401331694
S       -2.9154047944   -5.1664958728    1.1672291863
H        2.0623222643   -5.2934204229    3.8197412844
H       -3.1315244918   -4.5631655971   -2.4318386309
H        0.9952704622   -6.5257781346    1.9420332462
H       -4.2474168396   -7.2755502309    0.7787558297
H       -2.1622429830   -2.3461238637   -1.2058294010
H       -0.6740031275   -1.5017669661    0.3737965788
H       -0.3616959345   -5.1139438093    0.3612539330
23   

C       -4.2060417046   -7.1283120542   -2.0365084070
C        1.3542737941   -5.0176023004    3.0689019685
C       -3.0406647212   -4.9613266818   -1.3832767003
C        0.6419336512   -5.6172758569    2.0811199934
C       -3.8939632834   -6.3647937336    0.2952617361
C       -3.7369194258   -6.1977259309   -1.0559268064
C       -2.6858893365   -4.2274822960   -0.2751960064
C        1.2996394150   -3.5824675266    3.2092686605
C       -0.1507764073   -3.4117571095    1.4313570005
C       -1.9832621180   -2.9375394695   -0.2452337877
C       -0.9595047789   -2.5737040771    0.5508525503
N       -4.5825888285   -7.8894902529   -2.8331427368
N        0.5557383134   -2.8134714469    2.3423238068
N       -0.1254009157   -4.7968145202    1.2571925458
O        1.9060812671   -3.0467955411    4.1207298766
S       -3.2020885184   -5.0369961948    1.2164315535
H        1.9673518692   -5.5772455388    3.7608914060
H       -2.8304360285   -4.6541096201   -2.4029525830
H        0.6789333804   -6.6966498947    1.9520496957
H       -4.3928806486   -7.2137498125    0.7494577957
H       -2.2178771390   -2.2440271213   -1.0467340777
H       -0.6951611020   -1.5233138188    0.5678985017
H       -0.6633828296   -5.1611508369    0.4783176820
23   

C       -3.9019023481   -7.2450701543   -2.0042361341
C        1.2949578833   -5.1374559704    3.0078616056
C       -2.8995899590   -5.0004519707   -1.3428390895
C        0.4722977549   -5.6985550920    2.0852472948
C       -3.9600806353   -6.3167427702    0.2881444865
C       -3.6074820248   -6.2350801847   -1.0342669070
C       -2.7462589441   -4.1799471092   -0.2514413885
C        1.3454346476   -3.7005559853    3.1296500039
C       -0.2090581771   -3.4512780167    1.4509205940
C       -2.0581094473   -2.8783394278   -0.1748922471
C       -1.0065030573   -2.5665569438    0.6048532534
N       -4.1359891746   -8.0708183379   -2.7910115964
N        0.5946832096   -2.8927626850    2.3050039534
N       -0.2970930869   -4.8373525556    1.3061334886
O        2.0544184749   -3.1966101122    3.9834390388
S       -3.4464281856   -4.9070235972    1.2051653749
H        1.9206362419   -5.7293878197    3.6605806234
H       -2.5341347525   -4.7587279802   -2.3361648033
H        0.4277767645   -6.7793031419    1.9708150551
H       -4.5010881755   -7.1500146094    0.7230006232
H       -2.2936439850   -2.1563675361   -0.9505879585
H       -0.6985391982   -1.5282227117    0.6294732950
H       -0.9095881621   -5.1733727391    0.5704302716
23   

C       -3.6328361282   -7.2915621069   -1.9579895327
C        1.2373996057   -5.1783717844    2.9708916202
C       -2.7765390183   -4.9948424775   -1.2708717584
C        0.3101147097   -5.7092700672    2.1332185400
C       -4.0745889700   -6.2413753578    0.2385548440
C       -3.5119028199   -6.2247032340   -1.0120526959
C       -2.8224693223   -4.1126633279   -0.2195892088
C        1.3820785256   -3.7449939488    3.0485765640
C       -0.2787371233   -3.4405196389    1.4840785533
C       -2.1545817800   -2.8016113928   -0.0838936948
C       -1.0762537401   -2.5252193828    0.6711194538
N       -3.7262916220   -8.1635779844   -2.7237668068
N        0.6164658964   -2.9125249174    2.2635869202
N       -0.4671994635   -4.8212490383    1.3926668879
O        2.1906806839   -3.2654635374    3.8244261521
S       -3.7335606424   -4.7735617116    1.1458598078
H        1.8791911409   -5.7919230214    3.5869749102
H       -2.2482943622   -4.8012662856   -2.1996310084
H        0.1927199164   -6.7876537154    2.0534937759
H       -4.6705408623   -7.0605103647    0.6260461754
H       -2.4418831327   -2.0340329667   -0.7957722207
H       -0.7419450682   -1.4951214380    0.6996545256
H       -1.1502618447   -5.1370282229    0.7121304177
23   

C       -3.4867677780   -7.3098467213   -1.9444094542
C        1.2755075839   -5.2556728661    2.8273788689
C       -2.6725533988   -5.0250371743   -1.1718906399
C        0.2562753289   -5.7562559722    2.0822735554
C       -4.3980792918   -6.0939762254    0.0092718450
C       -3.5351013760   -6.1918820170   -1.0525520323
C       -2.8957445726   -4.0950196936   -0.1864710050
C        1.4892388798   -3.8295548314    2.8665436024
C       -0.2909971439   -3.4729439570    1.4515434137
C       -2.2448063262   -2.7825088333    0.0095313721
C       -1.1350841041   -2.5282283785    0.7258710696
N       -3.4430497524   -8.2240006801   -2.6640832303
N        0.6845421732   -2.9737422203    2.1495408936
N       -0.5409143207   -4.8455383066    1.3913067181
O        2.3898429843   -3.3763527562    3.5517319503
S       -4.1953868814   -4.5910721510    0.9017043885
H        1.9400854453   -5.8880735487    3.3986052666
H       -1.9367854024   -4.9042524628   -1.9616648909
H        0.0825346822   -6.8290037357    2.0374748773
H       -5.1276166419   -6.8525945046    0.2710599685
H       -2.7629327624   -1.9243168700   -0.4072074924
H       -0.8264092130   -1.4933548237    0.8122538324
H       -1.3140090385   -5.1381868690    0.8031411791
23   

C       -3.7861288325   -7.7183864816   -0.7714143512
C        1.1545750168   -5.0355504633    3.2352068830
C       -2.5894590470   -5.4736829018   -0.6759292652
C       -0.0023540227   -5.5167148173    2.7108758311
C       -4.8008060032   -5.6330953730    0.0924218127
C       -3.7495922027   -6.3238616811   -0.4527951740
C       -2.7725535376   -4.1859538662   -0.2321593216
C        1.6931535742   -3.7928370906    2.7389448123
C       -0.0616039700   -3.5624156482    1.2667598056
C       -1.8844894846   -3.0202834267   -0.3997262297
C       -0.7333249351   -2.7612427496    0.2483604353
N       -3.8139297448   -8.8552561442   -1.0209657402
N        1.0447876062   -3.0850970943    1.7528564071
N       -0.6124904413   -4.7674806223    1.7061979518
O        2.7307087110   -3.3580227715    3.2084450089
S       -4.4192467798   -3.9363591414    0.3573812826
H        1.6934002177   -5.5495258017    4.0184131743
H       -1.6808695245   -5.8212309157   -1.1596521403
H       -0.4243504529   -6.4509802294    3.0743471857
H       -5.7599198354   -6.0774750944    0.3347586801
H       -2.3129564754   -2.1666284177   -0.9158526945
H       -0.2410208972   -1.8222003292    0.0253497541
H       -1.4920224483   -5.0431892358    1.2824107599
23   

C       -3.6158141907   -7.7442570572   -0.6665397325
C        1.1665891433   -5.0630230972    3.2121052415
C       -2.5249155558   -5.4493830146   -0.5191816932
C       -0.0476855828   -5.4853829462    2.7741410393
C       -4.8368031937   -5.6489075089   -0.1740336762
C       -3.6813378868   -6.3305803051   -0.4550070941
C       -2.8244022789   -4.1413877275   -0.2150606391
C        1.7339269938   -3.8543599700    2.6664391044
C       -0.1030908253   -3.5428441077    1.3139937975
C       -1.9631928950   -2.9534870915   -0.3040592833
C       -0.7985019569   -2.7169289226    0.3317428923
N       -3.5622562620   -8.8960826203   -0.8276846097
N        1.0532842040   -3.1163454573    1.7252094948
N       -0.6837921977   -4.7138960571    1.8029084424
O        2.8283228704   -3.4783728619    3.0496784061
S       -4.5612805032   -3.9233032667    0.0275969367
H        1.7306237358   -5.5994864682    3.9617851388
H       -1.5330309429   -5.7915337327   -0.8019474520
H       -0.4935250956   -6.3915334428    3.1781977815
H       -5.8115336805   -6.1157180383   -0.0845839181
H       -2.4096733580   -2.0765420144   -0.7626867104
H       -0.3037250407   -1.7774550893    0.1160575953
H       -1.6095290410   -4.9381606589    1.4535817917
23   

C       -3.4684218812   -7.7622867795   -0.5363691423
C        1.1585374968   -5.0564417967    3.2170376429
C       -2.4823082770   -5.4226054995   -0.3641021240
C       -0.1035873288   -5.4206722275    2.8727908496
C       -4.8132584906   -5.6898592471   -0.3955690650
C       -3.6083188520   -6.3419009037   -0.4342539839
C       -2.8655498282   -4.1085318843   -0.2097524275
C        1.7450279835   -3.8840653652    2.6152348816
C       -0.1611179186   -3.5011944654    1.3818959241
C       -2.0469325253   -2.8938293911   -0.2077348503
C       -0.8758102927   -2.6647782064    0.4223335443
N       -3.3562040995   -8.9189670921   -0.6076974468
N        1.0368193597   -3.1228935202    1.7132815042
N       -0.7662809547   -4.6300072652    1.9354661244
O        2.8842538152   -3.5647982010    2.9085610583
S       -4.6245980733   -3.9457823481   -0.2668793150
H        1.7472573078   -5.6136095467    3.9318476269
H       -1.4494955068   -5.7474908912   -0.4573146811
H       -0.5650826292   -6.2975056520    3.3216205294
H       -5.7754719647   -6.1880476366   -0.4387699417
H       -2.5053551607   -2.0134789468   -0.6476754374
H       -0.3811936657   -1.7254590007    0.2057349970
H       -1.7244885184   -4.8107826183    1.6550061350
23   

C       -3.3701926172   -7.7435995550   -0.4281442024
C        1.1423789720   -5.0592371501    3.2584002287
C       -2.4412403317   -5.3836753447   -0.2239680427
C       -0.1582184911   -5.3507657525    2.9993498863
C       -4.7347693980   -5.6885288172   -0.6192853710
C       -3.5349788533   -6.3222141489   -0.4268337716
C       -2.8520739020   -4.0671543493   -0.2180395087
C        1.7572551084   -3.9291404556    2.6058403070
C       -0.1912942478   -3.4571572935    1.4745995904
C       -2.0786683971   -2.8324699897   -0.1094899704
C       -0.9083155720   -2.6098224394    0.5268110390
N       -3.2393840721   -8.9005115019   -0.4173240911
N        1.0409822405   -3.1391809420    1.7351795700
N       -0.8300108414   -4.5328216238    2.0925502324
O        2.9307028766   -3.6782712375    2.8197129857
S       -4.5824137927   -3.9376083370   -0.5561000442
H        1.7415714907   -5.6446563026    3.9412367225
H       -1.4078361409   -5.7059381689   -0.1341743853
H       -0.6413962971   -6.1938383543    3.4883630971
H       -5.6731977132   -6.2036844397   -0.7918044495
H       -2.5369852477   -1.9513979483   -0.5480953399
H       -0.4078502221   -1.6734559890    0.3111848597
H       -1.8106614928   -4.6642626175    1.8678559505
23   

C       -3.3536327994   -7.7579924985   -0.3036153747
C        1.1676367693   -5.0038446266    3.2500179937
C       -2.4615479542   -5.3848054074   -0.0935134659
C       -0.1562387010   -5.2574235758    3.0864535110
C       -4.6745126835   -5.7263892065   -0.8004873701
C       -3.5157335652   -6.3397588142   -0.4028975425
C       -2.8626177378   -4.0713657039   -0.2335140624
C        1.7704757831   -3.9038453822    2.5373959935
C       -0.2314024346   -3.3999359897    1.5201131057
C       -2.1511503952   -2.8123542944   -0.0390065839
C       -0.9804318030   -2.5647851851    0.5881849028
N       -3.2257708071   -8.9116257069   -0.2111424065
N        1.0219290344   -3.1094457823    1.6985271421
N       -0.8630347875   -4.4345959160    2.2109797236
O        2.9631815882   -3.6878715882    2.6653828825
S       -4.5312669567   -3.9741946544   -0.8109417387
H        1.7944487418   -5.5978597406    3.8998705405
H       -1.4574686577   -5.7078238497    0.1603927345
H       -0.6300634328   -6.0763239971    3.6233863420
H       -5.5782100591   -6.2567708326   -1.0792247671
H       -2.6223536023   -1.9423558775   -0.4860141581
H       -0.4979497102   -1.6218526757    0.3607987794
H       -1.8601181700   -4.5382663821    2.0557512773
23   

C       -4.2432466060   -7.2464749855    1.0107261575
C        1.3328900703   -4.9242541799    3.0647068277
C       -2.8716326808   -5.1600315869    0.5250979608
C        0.7432913835   -5.5824483703    2.0336672271
C       -4.6167699350   -5.7588232158   -0.9290270738
C       -3.9392454305   -6.0990944899    0.2115465300
C       -2.7604361569   -4.1385743421   -0.3980093149
C        1.2449417458   -3.4856988570    3.1284171862
C       -0.0356038826   -3.4299874267    1.2179917765
C       -1.8372076573   -3.0165727477   -0.5262728872
C       -0.7948012423   -2.6493256930    0.2501564303
N       -4.4821775664   -8.1863331985    1.6552905774
N        0.5718599123   -2.7749909616    2.1606411723
N        0.0573889513   -4.8162427049    1.0922062048
O        1.7514282899   -2.8947324655    4.0663620537
S       -3.9859424101   -4.2928291853   -1.6645220994
H        1.8721728013   -5.4391359797    3.8471194850
H       -2.2970829343   -5.2594479381    1.4373019603
H        0.8102035371   -6.6659343367    1.9632465987
H       -5.4488446767   -6.3240819567   -1.3335858431
H       -2.0925783856   -2.3048340969   -1.3053595620
H       -0.4969950229   -1.6091142815    0.1978139141
H       -0.3797379177   -5.2263352366    0.2742226136
23   

C       -4.3566752037   -7.1980932609    1.0191685466
C        1.2765328690   -5.0713544465    3.1275838791
C       -2.9887915372   -5.0920913774    0.6121712844
C        0.5899562663   -5.6832796169    2.1286389850
C       -4.4783297671   -5.8373519251   -1.0430192762
C       -3.9695589490   -6.0874214198    0.2042638096
C       -2.7571932226   -4.1329223614   -0.3532039301
C        1.2749029297   -3.6309494257    3.2078261141
C       -0.0984229134   -3.4797029356    1.3673128944
C       -1.8789630934   -2.9677805115   -0.3733213505
C       -0.8476421005   -2.6432061208    0.4367715884
N       -4.6628195208   -8.1087030353    1.6770702787
N        0.5904503586   -2.8719867821    2.2855744445
N       -0.1014680240   -4.8685333352    1.2335272178
O        1.8720877360   -3.0800822475    4.1163919770
S       -3.7865192580   -4.3925862138   -1.7675124962
H        1.8308912598   -5.6249714495    3.8720648408
H       -2.5486926393   -5.0996444448    1.6037516002
H        0.5881956266   -6.7680121205    2.0464556151
H       -5.2235285374   -6.4558630428   -1.5306568834
H       -2.1013437327   -2.2361338796   -1.1440259708
H       -0.5295464839   -1.6076752601    0.4261175001
H       -0.6132805380   -5.2447230506    0.4426121671
23   

C       -4.4616893857   -7.1308652036    1.0191228407
C        1.2538919973   -5.1260405669    3.1294806587
C       -3.0935323135   -5.0179580772    0.6481615753
C        0.4795574958   -5.7129679490    2.1810272769
C       -4.3280454239   -5.9184468477   -1.1335867778
C       -3.9890617223   -6.0679802898    0.1858219584
C       -2.7394096104   -4.1317516525   -0.3474070289
C        1.3191410083   -3.6865544435    3.1977135552
C       -0.1454501833   -3.4854754751    1.4330967223
C       -1.9239268504   -2.9207490960   -0.2930981808
C       -0.8934295161   -2.6200102662    0.5264911410
N       -4.8372089277   -8.0029994166    1.6929474688
N        0.6168377877   -2.9036923642    2.3094314071
N       -0.2283134712   -4.8739016309    1.3222498013
O        1.9962146182   -3.1569786500    4.0618763163
S       -3.5717844250   -4.5071671883   -1.8611174018
H        1.8299875593   -5.6991374790    3.8420020657
H       -2.7841437448   -4.9330050228    1.6859014056
H        0.4244473350   -6.7969866054    2.1086809079
H       -4.9873252139   -6.5906188154   -1.6714820579
H       -2.1314696261   -2.1803131377   -1.0595161903
H       -0.5616780276   -1.5886780932    0.5325449439
H       -0.8048193942   -5.2322443270    0.5681463428
23   

C       -4.6133617781   -7.0938754664    0.9486739064
C        1.2369356189   -5.1508198226    3.1561558726
C       -3.2334060344   -4.9750175438    0.6618855109
C        0.3658151413   -5.7215961781    2.2846551664
C       -4.1668847521   -6.0053250743   -1.2282806924
C       -4.0326223315   -6.0707543657    0.1341428012
C       -2.7324729784   -4.1487683126   -0.3200279454
C        1.3703486975   -3.7148444426    3.1839736560
C       -0.2019989680   -3.4855685426    1.5177600514
C       -1.9857242357   -2.8952032933   -0.1915814842
C       -0.9538577988   -2.6053614509    0.6283814100
N       -5.0767255596   -7.9334729910    1.6089466370
N        0.6410429178   -2.9203440729    2.3288014221
N       -0.3665635062   -4.8698992193    1.4593370700
O        2.1385132295   -3.1985462873    3.9771759775
S       -3.3265707212   -4.6216030595   -1.9161341278
H        1.8418302274   -5.7341763134    3.8356991855
H       -3.0808582408   -4.8160604517    1.7260285736
H        0.2570544960   -6.8031687091    2.2442327569
H       -4.7260649943   -6.7225023419   -1.8189476609
H       -2.1862602295   -2.1453380263   -0.9506638842
H       -0.6113986575   -1.5774806282    0.6365622066
H       -1.0074762918   -5.2180914398    0.7540088190
23   

C       -4.7488078573   -7.1087305471    0.8389091360
C        1.2199208393   -5.0812716547    3.1544318250
C       -3.4030798713   -4.9573501548    0.6419725328
C        0.2724316711   -5.6566418244    2.3696539562
C       -3.9623012671   -6.1469181639   -1.3012398530
C       -4.0655106442   -6.1177435907    0.0652365033
C       -2.7580089119   -4.1824417872   -0.2941928628
C        1.3878387929   -3.6489814173    3.1254047109
C       -0.2908722369   -3.4333337888    1.5645665352
C       -2.1036579184   -2.8780463272   -0.1179319999
C       -1.0712571609   -2.5638417472    0.6896178942
N       -5.2957552242   -7.9215371987    1.4679807339
N        0.6152941245   -2.8633508831    2.3008973553
N       -0.4982236371   -4.8134001717    1.5708130095
O        2.2305033688   -3.1285951290    3.8360775742
S       -3.0565473525   -4.7769628198   -1.9314280864
H        1.8614564283   -5.6581911710    3.8052339127
H       -3.4377433229   -4.7199981561    1.7018418522
H        0.1352248490   -6.7356677759    2.3743753227
H       -4.3880053730   -6.9239561136   -1.9265403458
H       -2.3275601030   -2.1289211573   -0.8711881358
H       -0.7426582600   -1.5313926562    0.6868285730
H       -1.1976995744   -5.1673049421    0.9267655330
23   

C       -4.8783191999   -7.0945343542    0.6890432446
C        1.2530003820   -5.0556852759    3.1229551690
C       -3.5629973988   -4.9164579333    0.6134062142
C        0.2296786957   -5.6168959502    2.4281187030
C       -3.7053054551   -6.2430900135   -1.3167728072
C       -4.0759987638   -6.1318115548   -0.0016076197
C       -2.7661642862   -4.1809535933   -0.2308747392
C        1.4637106710   -3.6308597258    3.0446503908
C       -0.3208516244   -3.3953973858    1.6095474037
C       -2.1811597213   -2.8446548457   -0.0123259082
C       -1.1349829466   -2.5214048686    0.7707805541
N       -5.5229254797   -7.8835469493    1.2524819173
N        0.6507723077   -2.8377092507    2.2676972716
N       -0.5709162461   -4.7676342819    1.6660019959
O        2.3822942305   -3.1246437577    3.6659122145
S       -2.7212765662   -4.8859740564   -1.8502617033
H        1.9243823352   -5.6385872120    3.7372730728
H       -3.8023465054   -4.6168313643    1.6298938334
H        0.0571743783   -6.6898474900    2.4734911197
H       -3.9841035003   -7.0713177892   -1.9589646926
H       -2.4584655807   -2.0806714117   -0.7321369367
H       -0.8153387445   -1.4861733822    0.7659439736
H       -1.3373197540   -5.1108953703    1.0968061642
23   

C       -4.9273462301   -7.1196881407    0.5480452944
C        1.3481478715   -5.0660737141    3.0071806925
C       -3.7145291590   -4.8816015735    0.5658232904
C        0.2580157369   -5.6088717287    2.4058656586
C       -3.2975854022   -6.4051474382   -1.1721115685
C       -4.0056625842   -6.1830563660   -0.0183550563
C       -2.7823596848   -4.1728936296   -0.1513889512
C        1.5904215895   -3.6490744540    2.8868945825
C       -0.3049317175   -3.3822927560    1.6081986890
C       -2.2549737479   -2.8167435636    0.1081130942
C       -1.1828331683   -2.4930368062    0.8531899286
N       -5.6705576928   -7.8864262494    1.0120147385
N        0.7262474251   -2.8408394619    2.1840218356
N       -0.5744030086   -4.7500345267    1.6904504180
O        2.5793709077   -3.1630219079    3.4081382586
S       -2.2538522617   -5.0513744445   -1.5894713246
H        2.0493716928   -5.6579659282    3.5780089323
H       -4.1909029967   -4.5121604665    1.4693008705
H        0.0569988540   -6.6745331532    2.4891776442
H       -3.3720125023   -7.3096483112   -1.7659110232
H       -2.7411953247   -2.0047272860   -0.4237127862
H       -0.9004929026   -1.4477139682    0.8890814080
H       -1.4148762225   -5.0733900440    1.2232208097
23   

C       -4.9876998280   -7.1254996744    0.4114163029
C        1.4765498000   -5.0196114373    2.9116350688
C       -3.8395716203   -4.8549817108    0.4941284008
C        0.3281924461   -5.5616301663    2.4311133523
C       -2.9847714837   -6.5296066135   -0.9137429937
C       -3.9620463994   -6.2179860405   -0.0033887963
C       -2.7893796781   -4.1723635583   -0.0686024057
C        1.7320366987   -3.6135719994    2.7133534167
C       -0.2677714276   -3.3536588728    1.6034409094
C       -2.3132658330   -2.8046981986    0.2249111366
C       -1.2142037863   -2.4712279298    0.9249885105
N       -5.8172931656   -7.8675157873    0.7530992991
N        0.8150312215   -2.8107362488    2.0730974839
N       -0.5460567564   -4.7138457264    1.7542312088
O        2.7773699378   -3.1319889282    3.1147092806
S       -1.8831015472   -5.1883548027   -1.1989678500
H        2.2138547351   -5.6039934742    3.4434054257
H       -4.5109212107   -4.4284598441    1.2333696792
H        0.1131658067   -6.6175293422    2.5790633332
H       -2.9011925564   -7.4898346940   -1.4110025343
H       -3.0055875116   -1.9944250527    0.0184213329
H       -0.9777706104   -1.4169318490    1.0039692959
H       -1.4444126730   -5.0297863097    1.4041479147
23   

C       -5.8300335007   -6.1542012486    0.5334325220
C        1.0555325612   -5.0011118722    3.3311403537
C       -4.0805507456   -4.3326850754    0.2144114976
C       -0.2307057087   -5.2999377097    3.0163178746
C       -3.5262702204   -6.5632622678   -0.2700169907
C       -4.5162583323   -5.7214054365    0.1669820212
C       -2.7808332314   -4.1613058387   -0.1969907950
C        1.7132640037   -3.9083239986    2.6564071705
C       -0.1734936806   -3.4715808814    1.4129731874
C       -1.9946726664   -2.9152065596   -0.2496634384
C       -0.8463385153   -2.6578933702    0.4031810305
N       -6.8964925044   -6.5086280118    0.8379307286
N        1.0461915301   -3.1483777066    1.7216909446
N       -0.8449660187   -4.5270536043    2.0334724746
O        2.8799726644   -3.6633671415    2.9101045836
S       -2.0343212622   -5.7074974533   -0.6358454435
H        1.6119585371   -5.5534614352    4.0749138102
H       -4.7225892892   -3.5205020899    0.5412591960
H       -0.7473484563   -6.1131602594    3.5211371773
H       -3.6464546075   -7.6347995458   -0.3861831438
H       -2.4754172764   -2.0546654810   -0.7043912067
H       -0.3329323704   -1.7359788814    0.1580816938
H       -1.8142445160   -4.6612375953    1.7654929218
23   

C       -5.9022618400   -6.1655857239    0.2189683408
C        1.1930651550   -4.9147914722    3.3068341822
C       -4.1349359169   -4.3387818612    0.0778744917
C       -0.1259277063   -5.1727467930    3.1158626953
C       -3.4996347996   -6.5832912201   -0.1939152191
C       -4.5498924584   -5.7340824198    0.0386622515
C       -2.7846445017   -4.1673659525   -0.1217583624
C        1.8279322691   -3.8702816701    2.5398612061
C       -0.1399597463   -3.4102865856    1.4400312339
C       -2.0392274859   -2.9018557203   -0.1500222404
C       -0.8660428283   -2.6210437912    0.4493075904
N       -7.0012913112   -6.5185008657    0.3719124735
N        1.1102296619   -3.1182208199    1.6367330192
N       -0.7954625576   -4.4096377302    2.1618156929
O        3.0209807159   -3.6649429336    2.6811041035
S       -1.9747667396   -5.7261856018   -0.3685044764
H        1.7926515847   -5.4651838503    4.0178046080
H       -4.8288286143   -3.5207298851    0.2440727110
H       -0.6251071484   -5.9483774647    3.6923124486
H       -3.5937231302   -7.6609882309   -0.2691250000
H       -2.5540554045   -2.0509279369   -0.5850867838
H       -0.3710284832   -1.7014758421    0.1614808549
H       -1.7871735314   -4.5183744259    1.9787948536
23   

C       -5.9451957353   -6.2097890053   -0.1005000322
C        1.3064302696   -4.6839169530    3.2732489209
C       -4.2153092511   -4.3427267752   -0.0492620077
C       -0.0279699983   -4.9282868589    3.2241342932
C       -3.5000876426   -6.5782415786   -0.0866674807
C       -4.5905335175   -5.7493440385   -0.0782546189
C       -2.8534702361   -4.1378474805   -0.0185599096
C        1.8739448563   -3.6786471806    2.4074483565
C       -0.1853716023   -3.2399266218    1.4816072776
C       -2.1759453275   -2.8410428053   -0.0274044152
C       -0.9928834490   -2.4976805937    0.5197457641
N       -7.0471369214   -6.5859698435   -0.1127486457
N        1.0790273145   -2.9515261272    1.5497920570
N       -0.7798943830   -4.1937398873    2.3095996123
O        3.0782022466   -3.4914210996    2.4171013562
S       -1.9863670799   -5.6861533212   -0.0542550074
H        1.9675771359   -5.2171839275    3.9414133341
H       -4.9453534127   -3.5396155295   -0.0581183842
H       -0.4759811155   -5.6733090013    3.8777706480
H       -3.5583279690   -7.6606165652   -0.1151884121
H       -2.7334835825   -2.0232481486   -0.4732456653
H       -0.5461925256   -1.5695267429    0.1845143268
H       -1.7852435900   -4.2965691926    2.2273350532
23   

C       -5.9476234174   -6.2219285925   -0.4655337948
C        1.3752092727   -4.6701956649    3.3071665339
C       -4.2299689834   -4.3649982741   -0.1762789131
C        0.0318645490   -4.8519666316    3.3792786086
C       -3.5545303483   -6.6025383295    0.0228842710
C       -4.6145105236   -5.7687348738   -0.2104930058
C       -2.8970837661   -4.1595119234    0.1108217185
C        1.9112136996   -3.7249892382    2.3578796286
C       -0.1966070938   -3.2300396913    1.5832049908
C       -2.2385632864   -2.8584407586    0.1328959242
C       -1.0451988291   -2.5009424778    0.6484871620
N       -7.0329994650   -6.5921943827   -0.6677876888
N        1.0793448192   -2.9925940428    1.5409897833
N       -0.7618774488   -4.1181996812    2.4997040429
O        3.1191605866   -3.6000929268    2.2550563048
S       -2.0630887615   -5.7160646416    0.2966987148
H        2.0666203832   -5.2104889439    3.9380298146
H       -4.9340437974   -3.5619827217   -0.3693404381
H       -0.3910854678   -5.5499672423    4.0981889841
H       -3.6213364084   -7.6846487818    0.0344742844
H       -2.7924951090   -2.0547081544   -0.3420631171
H       -0.6099712785   -1.5807498894    0.2781855025
H       -1.7737978970   -4.1757606011    2.5061118059
23   

C       -5.0683536549   -6.7033947052   -1.9076750761
C        1.5309231023   -4.7027824894    3.1980803309
C       -3.3874579789   -4.8600859352   -1.3969714360
C        1.1710600220   -5.3988956340    2.0895693344
C       -3.6487282449   -6.6330321677    0.1135215031
C       -4.0685159639   -6.1059249352   -1.0764182720
C       -2.4381355974   -4.4809708586   -0.4702372340
C        1.1552321180   -3.3147219711    3.3143359230
C        0.0583562910   -3.3898507782    1.2941957770
C       -1.7053181007   -3.2237986619   -0.5244066598
C       -0.7606210701   -2.7164126152    0.2939963317
N       -5.8792355250   -7.1935299945   -2.5846906747
N        0.4499943085   -2.6861412894    2.3129463277
N        0.4252558614   -4.7253027347    1.1237427216
O        1.4369135276   -2.7015094874    4.3291996066
S       -2.4150774439   -5.6418064962    0.8734773816
H        2.0935213865   -5.1501862406    4.0051018276
H       -3.6232286085   -4.2820532865   -2.2846791446
H        1.4582456512   -6.4419722999    1.9781204941
H       -4.0320623837   -7.5518005827    0.5428996742
H       -2.0328879163   -2.5470842743   -1.3074822374
H       -0.6361052405   -1.6405075992    0.2764109682
H        0.1474420612   -5.1616859310    0.2524667732
