29   

C        2.3220056682   -3.3713151689    0.4960854945
C        3.1980987776   -2.5967793193    1.2589489666
C        0.9445131267   -3.2466184720    0.6856204404
C        2.6974110174   -1.7147395468    2.2231506994
C        0.4430494018   -2.3633996017    1.6479498450
C       -0.1733536553   -3.4794187612    5.7544470138
C        0.4098255318   -4.7286298047    5.9782417348
C       -1.1143461746   -4.3114959124    3.6965882114
C        1.3108384069   -1.6114618286    2.4591259217
C       -0.9290603271   -3.2543779477    4.5998910423
C        0.2457886656   -5.7761639229    5.0634960393
C       -0.5294561928   -5.5650992765    3.9089479088
C        0.8672672910   -0.6482524085    3.4698439638
C       -0.3002261262   -0.4753195610    4.1185626354
O       -2.5075404136   -1.6521661084    3.0642590246
O       -2.4798291028   -1.2135973331    5.4586738714
S       -1.6897845395   -1.6260970657    4.2885706765
Cl       1.0007439515   -7.3234805984    5.3776840174
Cl      -0.7754737619   -6.8391748955    2.7340683627
H        2.7082428042   -4.0565239388   -0.2504011948
H        4.2678108564   -2.6790982994    1.1025215473
H        0.2596682210   -3.8253172141    0.0757722276
H        3.3994856465   -1.1232241027    2.8001523980
H       -0.6285402174   -2.2556245668    1.7179124294
H       -0.0402301651   -2.6824330296    6.4809625684
H        0.9977685223   -4.8947434201    6.8730816400
H       -1.7230555110   -4.1644225172    2.8087571940
H        1.6254189958    0.0750432117    3.7524034107
H       -0.4374724792    0.4184996738    4.7082057227
29   

C        2.1688333044   -3.5528026013    0.6819310035
C        3.0575576613   -2.9056575350    1.5439575091
C        0.8156315603   -3.2072310142    0.6939565743
C        2.5900918421   -1.9283867277    2.4300300133
C        0.3474808263   -2.2302778839    1.5793948946
C       -0.1068640354   -3.4261885109    5.7115846778
C        0.5518705145   -4.6442525435    5.8954185164
C       -0.9823594302   -4.2416654406    3.6188194471
C        1.2209392305   -1.6029353583    2.4840970223
C       -0.8670837358   -3.2074249093    4.5590219109
C        0.4602311807   -5.6659164037    4.9417846133
C       -0.3208081809   -5.4626065786    3.7899866435
C        0.7885850688   -0.5637590292    3.4267177528
C       -0.3743241938   -0.4020685206    4.0822573255
O       -2.5500290700   -1.6655012570    3.0763055434
O       -2.4862165549   -1.2413408448    5.4753895076
S       -1.7081014251   -1.6124482798    4.2834364913
Cl       1.3133215500   -7.1713990210    5.2033751971
Cl      -0.4757996094   -6.7037429148    2.5653382970
H        2.5293680828   -4.3123782193   -0.0029062045
H        4.1108037532   -3.1622393902    1.5259738083
H        0.1270522371   -3.6895674454    0.0090938677
H        3.2962029776   -1.4382125922    3.0909536345
H       -0.6971973294   -1.9509664250    1.5312092354
H       -0.0263133150   -2.6474946257    6.4651499745
H        1.1447254559   -4.8053470990    6.7878490938
H       -1.5898954429   -4.0980194285    2.7297017286
H        1.5488908786    0.1716656072    3.6695139290
H       -0.5408717761    0.5036682717    4.6453599087
29   

C        1.9549151620   -3.7091538555    0.8288070734
C        2.8092315120   -3.2514097358    1.8358162119
C        0.7022450628   -3.1144001750    0.6569598379
C        2.4073416923   -2.2072085649    2.6767166036
C        0.2978314555   -2.0742028676    1.5007866313
C       -0.0856479338   -3.3881517586    5.6851012296
C        0.6451907984   -4.5678993241    5.8469832246
C       -0.8671315937   -4.1929769269    3.5515171584
C        1.1372304989   -1.6222771799    2.5329554373
C       -0.8332822308   -3.1812849908    4.5220951638
C        0.6382098977   -5.5628833983    4.8611528164
C       -0.1337070271   -5.3750246278    3.7008703225
C        0.7369044206   -0.5324933946    3.4406843584
C       -0.4296955076   -0.3681635046    4.0831935455
O       -2.5434760493   -1.6832928186    3.0238444992
O       -2.5425220936   -1.2830473572    5.4335251332
S       -1.7324345309   -1.6162320711    4.2515431348
Cl       1.5875491945   -7.0148695679    5.0914770047
Cl      -0.1829496347   -6.5838057997    2.4356083428
H        2.2646893684   -4.5200697654    0.1788862054
H        3.7838601755   -3.7080945970    1.9659819012
H        0.0419926112   -3.4571529131   -0.1319863689
H        3.0802972574   -1.8656318405    3.4551399631
H       -0.6704230505   -1.6121858915    1.3394572764
H       -0.0650283432   -2.6267633398    6.4600259989
H        1.2317329020   -4.7180888159    6.7454447401
H       -1.4588053557   -4.0561596349    2.6507195884
H        1.5147256187    0.1854043612    3.6802553290
H       -0.6160014501    0.5356407768    4.6429342317
29   

C        1.8470415094   -3.7480610082    0.8906263856
C        2.6266529249   -3.3936798318    1.9956230355
C        0.6928443481   -3.0187493722    0.5912307701
C        2.2526323354   -2.3112453346    2.8003170364
C        0.3159872583   -1.9403984314    1.3991225224
C       -0.0781121950   -3.3634551262    5.6551663860
C        0.6730534796   -4.5294366691    5.8248935990
C       -0.8015847123   -4.1711232771    3.5019636494
C        1.0907881315   -1.5767877120    2.5123706319
C       -0.8077019609   -3.1650508417    4.4790624507
C        0.7022435300   -5.5202298485    4.8352925844
C       -0.0519673954   -5.3419452600    3.6619463146
C        0.6919943487   -0.4564548508    3.3922654672
C       -0.4509102876   -0.3416796510    4.0807140972
O       -2.5003456621   -1.6861458576    2.9417219439
O       -2.5850129810   -1.3127549402    5.3565299208
S       -1.7321621002   -1.6162468644    4.1967304186
Cl       1.6751375201   -6.9547827824    5.0765516245
Cl      -0.0588458319   -6.5489695224    2.3939209917
H        2.1348773960   -4.5885857098    0.2688350507
H        3.5194962728   -3.9617509562    2.2311862222
H        0.0853133706   -3.2896646273   -0.2651285167
H        2.8615255832   -2.0518905488    3.6590000586
H       -0.5844395609   -1.3837700817    1.1580033974
H       -0.0863137096   -2.6056907734    6.4338274153
H        1.2466136284   -4.6725045001    6.7329057119
H       -1.3746222785   -4.0381148293    2.5885950534
H        1.4530052335    0.2933522205    3.5829811867
H       -0.6456095758    0.5391056391    4.6731935026
29   

C        2.0812646872   -3.2008717344    0.8074135593
C        2.3630967385   -3.9910361825    1.9260918369
C        1.8244521335   -1.8357502487    0.9664060669
C        2.3931614368   -3.4154900668    3.2016116832
C        1.8527148454   -1.2614940537    2.2420048081
C       -0.8249579809   -3.9144595356    4.9266813575
C       -0.9392733142   -5.1886793421    4.3642040617
C       -1.0269839699   -2.9506482369    2.7257598007
C        2.1472752585   -2.0436623913    3.3688127183
C       -0.8487994621   -2.7819920191    4.1067158010
C       -1.0925264870   -5.3570376456    2.9821487563
C       -1.1463481125   -4.2223034683    2.1533357841
C        2.1380856025   -1.4559277123    4.7318931350
C        1.0608777457   -1.0821932333    5.4302754968
O       -0.8100273777   -0.0828867394    3.7617217406
O       -1.5529480674   -0.9114614847    5.9397598354
S       -0.6372767111   -1.1084610851    4.8050389725
Cl      -1.2112234501   -6.9708493615    2.3155806172
Cl      -1.3458947674   -4.3719226471    0.4204426644
H        2.0531294858   -3.6474435308   -0.1803915214
H        2.5505573734   -5.0519629234    1.8050240711
H        1.5965028764   -1.2211933999    0.1026048534
H        2.6000168327   -4.0396998031    4.0635249980
H        1.6361278843   -0.2040214800    2.3590373698
H       -0.7087578345   -3.8048657021    6.0014299866
H       -0.9079689120   -6.0636249695    5.0025874321
H       -1.0585750787   -2.0797587586    2.0768886635
H        3.0902047901   -1.4458306500    5.2525561690
H        1.1602105533   -0.7227888252    6.4429870861
29   

C        2.1000068766   -3.2793193048    0.8611411780
C        2.2728393539   -4.0141885094    2.0381577207
C        1.9395253262   -1.8916875149    0.9241414882
C        2.2877670053   -3.3612636486    3.2760795398
C        1.9575757226   -1.2397569590    2.1622229143
C       -0.7993051669   -3.9544823751    4.9175868952
C       -0.9078711815   -5.2112781279    4.3153915560
C       -1.0269133957   -2.9231092082    2.7495174713
C        2.1401816937   -1.9678322427    3.3463124774
C       -0.8393661840   -2.7967775893    4.1339282933
C       -1.0729237722   -5.3368072714    2.9299864354
C       -1.1430343090   -4.1768088977    2.1381741915
C        2.1264060470   -1.2895134311    4.6700026622
C        1.0602188145   -1.0368348903    5.4342764506
O       -0.9286197922   -0.0925639881    3.8835374837
O       -1.5321067106   -1.0225169923    6.0613925140
S       -0.6601556819   -1.1414302766    4.8820550436
Cl      -1.1860490290   -6.9293316316    2.2131626360
Cl      -1.3591889582   -4.2727326066    0.4034380779
H        2.0810471259   -3.7856094808   -0.0976622682
H        2.3854949064   -5.0914522620    1.9915504545
H        1.7953010791   -1.3200290898    0.0141144860
H        2.4097851754   -3.9405678182    4.1842869750
H        1.8173744031   -0.1643559636    2.2057816301
H       -0.6787101634   -3.8779018147    5.9947867906
H       -0.8651604975   -6.1060366476    4.9250710667
H       -1.0718466756   -2.0322325433    2.1290748776
H        3.0997569917   -1.0568200660    5.0898236152
H        1.1829347324   -0.6684731256    6.4412059333
29   

C        2.7883031569   -4.2957557660    2.0007114511
C        3.1455882147   -4.1035584523    3.3386401786
C        2.0482291355   -3.3161482166    1.3323334348
C        2.7582741725   -2.9364868623    4.0068926939
C        1.6646330584   -2.1491156824    2.0025144644
C       -0.3982658462   -4.1793695316    3.9962224544
C       -0.7766358381   -4.8744859439    2.8471972624
C       -1.7264167773   -2.2989479513    3.2794381070
C        2.0025143710   -1.9545791265    3.3505991127
C       -0.8571982331   -2.8759194999    4.2152498335
C       -1.6182489723   -4.2878157810    1.8958761310
C       -2.1038854317   -2.9853365097    2.1172433826
C        1.6164645780   -0.7049149725    4.0536402430
C        0.6689720958   -0.5680780713    4.9868592657
O       -1.4469010363   -1.3783680879    6.4010581105
O        0.5584983172   -2.7740346006    6.5355539692
S       -0.2950532943   -1.9359500528    5.6754085336
Cl      -2.0407995347   -5.1815085315    0.4518039849
Cl      -3.1576847114   -2.2037156394    0.9588660724
H        3.0871779153   -5.1998051388    1.4818961224
H        3.7239018396   -4.8573228872    3.8612732165
H        1.7697030648   -3.4598547753    0.2943424526
H        3.0369258556   -2.7967743419    5.0469470459
H        1.0902860928   -1.3962574455    1.4741130656
H        0.2717298579   -4.6465085310    4.7137164292
H       -0.4028774547   -5.8779168533    2.6826344164
H       -2.1057623737   -1.2947387969    3.4431841579
H        2.0700012680    0.2075031500    3.6800117295
H        0.4268860958    0.4032832540    5.3900446021
29   

C        2.8474054217   -4.2853831058    2.0180143288
C        3.0672228361   -4.1107180821    3.3872402826
C        2.2083543384   -3.2819086833    1.2844439619
C        2.6400282118   -2.9390194823    4.0219433503
C        1.7875298794   -2.1084723168    1.9203197440
C       -0.4114490100   -4.1920277774    3.9949102453
C       -0.8038592720   -4.8720755700    2.8415560579
C       -1.7303281997   -2.2944914132    3.3077143208
C        1.9831324431   -1.9310626064    3.2986739001
C       -0.8572746879   -2.8869506005    4.2299324219
C       -1.6495688628   -4.2696464007    1.9036924145
C       -2.1239989716   -2.9662902394    2.1427831768
C        1.5350846803   -0.6883072074    3.9660982485
C        0.6707270690   -0.5830064508    4.9832800024
O       -1.4104908933   -1.4096486418    6.4389637435
O        0.5998797095   -2.8000522678    6.5279988107
S       -0.2710333573   -1.9591507061    5.6882337303
Cl      -2.0924187261   -5.1455674846    0.4548383076
Cl      -3.1836094512   -2.1653090993    1.0030745029
H        3.1754699435   -5.1940396447    1.5255497727
H        3.5698046709   -4.8815185735    3.9608783196
H        2.0370541654   -3.4124007000    0.2217837905
H        2.8191560900   -2.8147624339    5.0855706732
H        1.2900834481   -1.3393889888    1.3398842341
H        0.2596285632   -4.6721171115    4.7027070354
H       -0.4392475026   -5.8765326556    2.6632773607
H       -2.0997185205   -1.2887607203    3.4842840169
H        1.8584955404    0.2400428204    3.5063551491
H        0.4396678730    0.3814109364    5.4090890410
29   

C        2.9381555937   -4.2200077271    1.9827390471
C        2.9751817032   -4.1077968327    3.3746933724
C        2.4433460328   -3.1624319828    1.2157296780
C        2.5064765156   -2.9457302140    3.9975422686
C        1.9814631043   -1.9985673340    1.8405215333
C       -0.4718361421   -4.1820178637    4.0738774332
C       -0.8817284091   -4.8997050960    2.9497123157
C       -1.7545490233   -2.2875812964    3.3140766420
C        1.9906428089   -1.8803797955    3.2396474813
C       -0.8906124955   -2.8597864381    4.2571465829
C       -1.7207677007   -4.3193154956    1.9919712191
C       -2.1677400819   -2.9980321804    2.1795913046
C        1.4740279099   -0.6565091255    3.8779540664
C        0.6641752122   -0.5463310133    4.9421104181
O       -1.4353547605   -1.3004042540    6.4079720136
O        0.5506759294   -2.7130206199    6.5624305292
S       -0.2983532276   -1.8894857464    5.6842541759
Cl      -2.1929041467   -5.2460492549    0.5845514019
Cl      -3.2206116856   -2.2239608567    1.0153124191
H        3.2978629274   -5.1213900879    1.4990633298
H        3.3709840721   -4.9189558071    3.9755963004
H        2.4153335087   -3.2438813605    0.1348961343
H        2.5619335325   -2.8719105772    5.0783563228
H        1.5947661234   -1.1900224278    1.2301284385
H        0.1876940974   -4.6487530924    4.8011822033
H       -0.5398288656   -5.9183874274    2.8113302252
H       -2.1050992870   -1.2691952760    3.4523357323
H        1.7213453784    0.2721382797    3.3736796044
H        0.4562763579    0.4248092628    5.3647916705
29   

C        3.0358064667   -4.0341724525    1.7318753314
C        2.7687047306   -4.1483471791    3.0970776711
C        2.8214726942   -2.8153138905    1.0865687553
C        2.2771234725   -3.0503917830    3.8117232414
C        2.3319146953   -1.7182541692    1.8038850459
C       -0.6795804117   -4.3060534027    4.3343950439
C       -1.1066370479   -5.1047701565    3.2727226127
C       -1.5975680459   -2.3706149325    3.2274305285
C        2.0358168978   -1.8186730847    3.1748676121
C       -0.9101461215   -2.9258694425    4.3150795293
C       -1.7733940525   -4.5475775493    2.1756358765
C       -2.0245005771   -3.1630132923    2.1541796522
C        1.4875024921   -0.6491378751    3.8708062028
C        0.6529315345   -0.5596063127    4.9213517992
O       -1.4770986599   -1.2550020962    6.3676412553
O        0.4920010806   -2.6577649551    6.6277613870
S       -0.3296150509   -1.8751239624    5.6885318940
Cl      -2.2816661263   -5.5825636106    0.8590994799
Cl      -2.8567062916   -2.4137885592    0.8090158700
H        3.4147387627   -4.8853924054    1.1772135027
H        2.9498536224   -5.0870847643    3.6082301092
H        3.0321012688   -2.7195954740    0.0272782670
H        2.1182103593   -3.1656702741    4.8757547209
H        2.1657947785   -0.7841830425    1.2787339668
H       -0.1628276179   -4.7589562420    5.1770995469
H       -0.9192172013   -6.1717242247    3.2951890107
H       -1.8019100434   -1.3047103541    3.2040376417
H        1.7648598773    0.3052555058    3.4347003004
H        0.4489584357    0.4115618564    5.3464203456
29   

C        3.3431328869   -3.9362527753    1.7049331634
C        2.8302861572   -4.1448918637    2.9852827042
C        3.2553515726   -2.6701254009    1.1267870441
C        2.2226000431   -3.0939809021    3.6813657899
C        2.6481496242   -1.6207099693    1.8248541866
C       -0.7889882660   -4.3438477932    4.3990078143
C       -1.3004522200   -5.1636908921    3.3917692272
C       -1.7282160470   -2.4208654263    3.2878798481
C        2.1088345871   -1.8098534557    3.1117901053
C       -0.9889235205   -2.9594785175    4.3498826619
C       -2.0230075596   -4.6240622375    2.3213244296
C       -2.2412319455   -3.2348258107    2.2699769967
C        1.4424836690   -0.6768155944    3.7569882841
C        0.6016603581   -0.5815683806    4.8046188615
O       -1.4303437678   -1.2475405176    6.3943535794
O        0.5509003462   -2.6439323815    6.5701904382
S       -0.3236131934   -1.8816674874    5.6627897108
Cl      -2.6428118219   -5.6864432006    1.0762275669
Cl      -3.1422956146   -2.5067603616    0.9577928718
H        3.8127149088   -4.7512934063    1.1654450379
H        2.9102456814   -5.1223350375    3.4473660370
H        3.6554026773   -2.5001666392    0.1334518208
H        1.8803459277   -3.2988763065    4.6836052415
H        2.5860854178   -0.6501946791    1.3451563984
H       -0.2363441556   -4.7846818023    5.2253025054
H       -1.1394951114   -6.2342898103    3.4377646084
H       -1.9113681572   -1.3517091324    3.2432533434
H        1.6711918908    0.2821573775    3.3031761674
H        0.3527388061    0.4012083596    5.1759377124
29   

C        2.8480716570   -2.1961289450    0.3981605355
C        1.4892035548   -2.1444646603    0.7054601890
C        3.7858451352   -1.8886361516    1.3823645502
C        1.0691152271   -1.7926639028    1.9932226473
C        3.3631074240   -1.5369204770    2.6687513977
C       -0.7088839496   -4.1786414126    5.3647504922
C       -0.6499516547   -5.5528835761    5.1236574215
C       -1.4878992383   -3.8356426441    3.1090311871
C        1.9959776804   -1.4836688375    3.0097179211
C       -1.1134191482   -3.3027488705    4.3517657704
C       -0.9991538513   -6.0817160833    3.8753944052
C       -1.4268041150   -5.2115764963    2.8559780246
C        1.6517682300   -1.1550317751    4.3938911743
C        0.5039679391   -1.0449878674    5.0926639046
O       -1.6783369242   -0.7795722777    3.4766254090
O       -2.0412979514   -1.2536951801    5.8383527761
S       -1.1947590005   -1.5058979838    4.6623260579
Cl      -0.9046454116   -7.8095975250    3.6128327792
Cl      -1.8861405257   -5.8177832817    1.2794266322
H        3.1721091538   -2.4700790648   -0.5997484465
H        0.7535187212   -2.3732181362   -0.0575292106
H        4.8443980564   -1.9248277830    1.1505783530
H        0.0082193055   -1.7504989890    2.1582099741
H        4.1205464068   -1.3111384385    3.4110473369
H       -0.4430632354   -3.7917989233    6.3448261270
H       -0.3324784097   -6.2241928287    5.9129357532
H       -1.8400561509   -3.1767613761    2.3201628593
H        2.5178851454   -0.9047259263    4.9977997903
H        0.5606723776   -0.6501710355    6.0958864130
29   

C        2.5737041295   -2.6838903605    0.6592739076
C        1.2555810046   -2.2934620318    0.8950609173
C        3.5375835313   -2.4841019241    1.6474503431
C        0.9003021654   -1.7157603927    2.1189710360
C        3.1794533141   -1.9070694991    2.8708054370
C       -0.3692637988   -4.1254122620    5.3946491471
C       -0.1334513456   -5.4672090064    5.0870669290
C       -1.3049999857   -3.8081782721    3.1954781346
C        1.8521548331   -1.5215584822    3.1399369982
C       -0.9433454927   -3.2774988139    4.4426906181
C       -0.4703186198   -5.9901983009    3.8325016315
C       -1.0668832985   -5.1496539867    2.8753586199
C        1.5406387527   -0.9859316772    4.4666903558
C        0.3870297600   -0.8071182444    5.1389706228
O       -1.9173080747   -0.8440459558    3.7014055965
O       -2.0349697894   -1.4123830633    6.0648052701
S       -1.2495258045   -1.5206134800    4.8259748454
Cl      -0.1492972415   -7.6750372680    3.4845284323
Cl      -1.5155155564   -5.7490856109    1.2931189337
H        2.8478568135   -3.1335374859   -0.2886595000
H        0.5048355316   -2.4302149920    0.1247042208
H        4.5648301875   -2.7811212512    1.4682457695
H       -0.1209768253   -1.3886488119    2.2346791098
H        3.9483405545   -1.7759970026    3.6240415580
H       -0.1072569831   -3.7417764193    6.3769243009
H        0.3155698111   -6.1176022955    5.8282727148
H       -1.7801062825   -3.1720279655    2.4537968320
H        2.4138765497   -0.6576680369    5.0211662830
H        0.4082754643   -0.2335001488    6.0532995270
29   

C        2.3665368185   -2.8756688142    0.7558142132
C        1.1397760993   -2.2297742991    0.9151884357
C        3.3044395733   -2.8398220663    1.7888690855
C        0.8467038009   -1.5625741660    2.1097194451
C        3.0092240625   -2.1707640989    2.9819708608
C       -0.2860193858   -4.0824336855    5.3888585227
C        0.0353273460   -5.4020035204    5.0621146941
C       -1.1457722915   -3.7638833003    3.1594258222
C        1.7694638624   -1.5350269365    3.1722012215
C       -0.8641239958   -3.2440851861    4.4312331011
C       -0.2184437842   -5.9113729631    3.7823857297
C       -0.8206316609   -5.0816410164    2.8196346334
C        1.4908088535   -0.8916382573    4.4613580667
C        0.3362431087   -0.7085524134    5.1266550653
O       -1.9683295490   -0.8636079926    3.7076789392
O       -2.0442456002   -1.4450042146    6.0721067241
S       -1.2625267445   -1.5088142567    4.8276569116
Cl       0.2136099516   -7.5656939404    3.4093505062
Cl      -1.1648259011   -5.6632994727    1.2048911323
H        2.5918447599   -3.3962929675   -0.1683707925
H        0.4140386950   -2.2391176145    0.1095809306
H        4.2613130580   -3.3349496201    1.6673665840
H       -0.0974671543   -1.0391978882    2.1829807209
H        3.7498254822   -2.1654952901    3.7739121406
H       -0.0847069093   -3.7074478557    6.3886257040
H        0.4887905453   -6.0449334610    5.8070048900
H       -1.6189361211   -3.1340787060    2.4112412828
H        2.3722650284   -0.5375213391    4.9862005847
H        0.3328208623   -0.0893194778    6.0108380339
29   

C        2.1200497565   -2.9628665695    0.8077642175
C        1.0734938688   -2.0426704982    0.9002504065
C        2.9596218313   -3.1692271491    1.9048963751
C        0.8578452998   -1.3431125841    2.0927729486
C        2.7462723436   -2.4634528919    3.0944103802
C       -0.2636136788   -4.0372386189    5.3840445639
C        0.1404161721   -5.3345065825    5.0587380211
C       -0.9881461999   -3.7171834843    3.1073746943
C        1.6814244415   -1.5556637811    3.2119421285
C       -0.8137226363   -3.2079305598    4.4022721390
C       -0.0031993936   -5.8305441284    3.7567480117
C       -0.5811373088   -5.0124938133    2.7696980930
C        1.4503236379   -0.8541780291    4.4870516315
C        0.2923686732   -0.6566461929    5.1360410143
O       -1.9499660596   -0.8557548470    3.6337040338
O       -2.1081052731   -1.4401639825    5.9996120443
S       -1.2801018476   -1.4855040032    4.7844351560
Cl       0.5378259135   -7.4527909639    3.3850974414
Cl      -0.7883745952   -5.5785021485    1.1261897433
H        2.2817934422   -3.5120045899   -0.1132253958
H        0.4260216223   -1.8693761176    0.0478566276
H        3.7748173804   -3.8805854348    1.8351795255
H        0.0491124175   -0.6215330391    2.1373784768
H        3.4027160140   -2.6421673060    3.9385895774
H       -0.1419014275   -3.6698640276    6.3993674413
H        0.5759527994   -5.9691193954    5.8212333237
H       -1.4323764739   -3.0922559372    2.3377254272
H        2.3446290301   -0.5216283318    5.0041356148
H        0.2665843339   -0.0297613163    6.0142553051
29   

C        2.0209846031   -2.9779177965    0.8329864637
C        1.1113940788   -1.9175483145    0.8655146369
C        2.7467453029   -3.3050867618    1.9815409026
C        0.9200584754   -1.1942870457    2.0480045003
C        2.5583409158   -2.5763703989    3.1613949933
C       -0.2694111738   -4.0090804138    5.3802666461
C        0.1551615961   -5.3037193017    5.0701554017
C       -0.9163639086   -3.6953501046    3.0791187803
C        1.6295380704   -1.5256280174    3.2132946678
C       -0.7917868618   -3.1844568867    4.3792859051
C        0.0573874336   -5.8026736722    3.7650363617
C       -0.4932202464   -4.9900307217    2.7581177306
C        1.4232965841   -0.7666093958    4.4665115469
C        0.2768085410   -0.6301812098    5.1448541026
O       -1.9034347787   -0.8369343479    3.5614489042
O       -2.1521470744   -1.4168480241    5.9238808899
S       -1.2795987131   -1.4626292278    4.7401603509
Cl       0.6222701902   -7.4213729079    3.4137059915
Cl      -0.6458689242   -5.5622117675    1.1106839771
H        2.1630016303   -3.5448272095   -0.0804662883
H        0.5500132983   -1.6554955183   -0.0244269337
H        3.4532293710   -4.1271341988    1.9587021748
H        0.2105850865   -0.3725337607    2.0587688126
H        3.1244310063   -2.8437928090    4.0464927017
H       -0.1835831253   -3.6396601656    6.3984942080
H        0.5705846198   -5.9342379007    5.8472039759
H       -1.3331655557   -3.0717743247    2.2931551720
H        2.3186966720   -0.3770076597    4.9399814986
H        0.2399718599   -0.0296205248    6.0407816595
29   

C        1.9874175008   -3.0003515102    0.8745151303
C        1.1729493394   -1.8650582166    0.8371464222
C        2.6058761073   -3.3719570008    2.0715386387
C        0.9729124730   -1.1076883991    1.9966991920
C        2.4057448983   -2.6112978786    3.2290356077
C       -0.2600925099   -4.0229841335    5.3990050208
C        0.1633919489   -5.3144602624    5.0735826687
C       -0.9072017141   -3.6820008919    3.1013466921
C        1.5741603006   -1.4811642216    3.2071219398
C       -0.7828980676   -3.1866552236    4.4077813160
C        0.0622167437   -5.7991741088    3.7633051599
C       -0.4887850955   -4.9748271897    2.7661609684
C        1.3733435136   -0.6667190348    4.4319323276
C        0.2687478577   -0.6225120063    5.1838498702
O       -1.9159930349   -0.8425008829    3.6172682942
O       -2.1440978269   -1.4425487707    5.9781368354
S       -1.2798098624   -1.4713236677    4.7877110227
Cl       0.6240693400   -7.4147798632    3.3932056997
Cl      -0.6474376382   -5.5303745993    1.1135210183
H        2.1375073555   -3.5919977711   -0.0218066169
H        0.6924349593   -1.5713470266   -0.0894624754
H        3.2373269184   -4.2526647252    2.1035660153
H        0.3339067967   -0.2306893551    1.9593024017
H        2.8886774715   -2.9101204249    4.1525199873
H       -0.1740886648   -3.6657589496    6.4215719697
H        0.5792668594   -5.9543171074    5.8427790487
H       -1.3212010550   -3.0477872901    2.3223185786
H        2.2515847042   -0.1575649369    4.8155739238
H        0.2458649852   -0.0465846225    6.0961997356
29   

C        2.0008783857   -3.1045978378    0.9056339252
C        1.2681995561   -1.9229038034    0.7620575386
C        2.5022280634   -3.4623485394    2.1601606693
C        1.0360326527   -1.1028048521    1.8720927091
C        2.2661488432   -2.6412727930    3.2684747662
C       -0.2207354196   -4.0657482352    5.3690328408
C        0.1883897350   -5.3473684058    4.9895399146
C       -0.9545802012   -3.6573844759    3.1082354185
C        1.5203713477   -1.4595771127    3.1377556883
C       -0.7797992544   -3.2005961377    4.4230962066
C        0.0354105394   -5.7937290175    3.6705211113
C       -0.5527784198   -4.9405687591    2.7199208779
C        1.2976309745   -0.5725293548    4.3104135501
C        0.2614730286   -0.5972849427    5.1532333188
O       -2.0314674653   -0.8788825838    3.7707719059
O       -2.0448360569   -1.5168684602    6.1299564609
S       -1.2802176845   -1.5036126511    4.8727564018
Cl       0.5799876911   -7.3979502710    3.2316135805
Cl      -0.7778272062   -5.4482046289    1.0595491526
H        2.1776566501   -3.7431525782    0.0471617244
H        0.8778780165   -1.6413491333   -0.2095848813
H        3.0696779822   -4.3789638897    2.2750753717
H        0.4636492396   -0.1884363836    1.7525359426
H        2.6586199466   -2.9279752438    4.2375456972
H       -0.0985190147   -3.7398044048    6.3984293279
H        0.6316856918   -6.0103085886    5.7230891649
H       -1.3981190880   -3.0006729243    2.3648407575
H        2.1082885268    0.1095243673    4.5459245626
H        0.2687853655    0.0038678840    6.0494556107
29   

C        3.0349359945   -3.5152459849    2.1410921947
C        1.9431755729   -3.0684833156    1.3899589623
C        3.3210253159   -2.9209126424    3.3742500103
C        1.1432099450   -2.0243885056    1.8682491589
C        2.5189017571   -1.8790041672    3.8530743673
C        0.1962004023   -4.2880834790    4.3855038088
C        0.1131044454   -5.3007931758    3.4293546442
C       -1.8098596960   -3.2957254583    3.4888042856
C        1.4311536507   -1.4136391991    3.0994111207
C       -0.7574988477   -3.2649358465    4.4139095861
C       -0.9187120540   -5.3152773775    2.4845601575
C       -1.8957824650   -4.3026301725    2.5177148217
C        0.5522199119   -0.3315478905    3.6110391879
C       -0.3455938780   -0.4263983433    4.5971876953
O       -1.8624944529   -1.7344609549    6.3626947390
O        0.5498773025   -2.1141407372    6.5033448345
S       -0.6061242955   -1.8994496991    5.6153832206
Cl      -0.9669145858   -6.5848990176    1.2811158179
Cl      -3.2067056777   -4.2720296456    1.3584986072
H        3.6560491579   -4.3227402933    1.7696805847
H        1.7125278401   -3.5338515198    0.4381967332
H        4.1627798391   -3.2672203569    3.9635582928
H        0.2923887307   -1.6936196921    1.2829769612
H        2.7382974635   -1.4320135506    4.8179326221
H        1.0161153349   -4.2854367642    5.0993802593
H        0.8654166905   -6.0800753980    3.4099718033
H       -2.5686230119   -2.5192154422    3.5088610581
H        0.5569706936    0.5917424808    3.0406828257
H       -0.9805477324    0.4101058174    4.8458348652
29   

C        3.0799948576   -3.5025375935    2.1267462392
C        2.0582945962   -3.0169432031    1.3050049542
C        3.2537510394   -2.9708295443    3.4080229698
C        1.2137728298   -1.9989771614    1.7625588275
C        2.4052086224   -1.9575779911    3.8675263220
C        0.1762324977   -4.3086853538    4.4129486844
C        0.0872418496   -5.3169428390    3.4526812051
C       -1.8240547492   -3.3015057240    3.5205477435
C        1.3783338008   -1.4600618123    3.0493728685
C       -0.7699366038   -3.2786385758    4.4436096223
C       -0.9458497232   -5.3226607153    2.5091308989
C       -1.9178984777   -4.3054945566    2.5475915189
C        0.4625115355   -0.3997601923    3.5265953024
C       -0.3440239897   -0.4472087316    4.5943177991
O       -1.8525508504   -1.7263925431    6.3892527295
O        0.5579056068   -2.1186799919    6.5177927793
S       -0.6024486164   -1.9061353939    5.6350504810
Cl      -1.0024212657   -6.5875335193    1.3010858683
Cl      -3.2314475646   -4.2645091047    1.3916930220
H        3.7366567518   -4.2885580911    1.7707137622
H        1.9184786566   -3.4303074675    0.3124489836
H        4.0460252740   -3.3414626926    4.0489021115
H        0.4208686198   -1.6361609247    1.1179697441
H        2.5486008981   -1.5534890774    4.8650154576
H        0.9965803134   -4.3135236805    5.1262521294
H        0.8355890478   -6.0999254010    3.4290034919
H       -2.5771259790   -2.5195446032    3.5426512168
H        0.3552189990    0.4620827146    2.8758102256
H       -0.9511499994    0.4044032565    4.8607162077
29   

C        3.1689465583   -3.4158309098    2.0462332379
C        2.2470920811   -2.8246831343    1.1776742561
C        3.2050532478   -3.0293509945    3.3887706267
C        1.3589735640   -1.8526162543    1.6520216687
C        2.3131693109   -2.0620431872    3.8646471116
C        0.1131418632   -4.3359747668    4.4587771185
C        0.0098295768   -5.3603556220    3.5171264018
C       -1.8622981329   -3.3077833453    3.5357799862
C        1.3698433411   -1.4732091673    3.0057975980
C       -0.8131281799   -3.2874402256    4.4642719108
C       -1.0200163007   -5.3657353005    2.5698379609
C       -1.9721244976   -4.3293301986    2.5833503065
C        0.4228466449   -0.4465999240    3.4780043970
C       -0.3341251942   -0.4599271462    4.5854622072
O       -1.8963330647   -1.6879745380    6.3685874514
O        0.4997050903   -2.1272793161    6.5482459066
S       -0.6372526183   -1.9021024864    5.6388844855
Cl      -1.0996637221   -6.6563198032    1.3905745069
Cl      -3.2826222746   -4.2881772914    1.4239715636
H        3.8593391302   -4.1664075833    1.6776868993
H        2.2203540498   -3.1191578552    0.1345264685
H        3.9283134398   -3.4733890741    4.0636660520
H        0.6486215114   -1.4046811277    0.9660173479
H        2.3708087138   -1.7594041122    4.9048914947
H        0.9269522544   -4.3457245209    5.1794716638
H        0.7418359956   -6.1590501515    3.5129966471
H       -2.6012764760   -2.5121740179    3.5400053831
H        0.2611990296    0.3873903630    2.8025818761
H       -0.9102382136    0.4109997816    4.8584911839
29   

C        3.2150493723   -3.2063820947    1.8146982447
C        2.4537223424   -2.3918972770    0.9729653039
C        3.0626787800   -3.1068685814    3.1996480650
C        1.5313385569   -1.4898784386    1.5150425883
C        2.1396934134   -2.2064748334    3.7427216100
C       -0.0128551027   -4.4295135690    4.7469967160
C       -0.0996694252   -5.5370011087    3.9023132239
C       -1.7679408917   -3.3538795452    3.4915067453
C        1.3408195966   -1.4058988107    2.9079785998
C       -0.8395069452   -3.3194420165    4.5406056361
C       -1.0113845858   -5.5630457264    2.8408220461
C       -1.8582889862   -4.4581898838    2.6345058285
C        0.3671113208   -0.4334560458    3.4188229611
C       -0.4028945394   -0.4581983779    4.5205270722
O       -1.9937777647   -1.6287039191    6.3119730310
O        0.3923037171   -2.0198713870    6.5865670754
S       -0.7132748771   -1.8592906556    5.6265416908
Cl      -1.0804050462   -6.9666547992    1.7977438852
Cl      -3.0189952217   -4.4383426191    1.3245996555
H        3.9300857681   -3.9052251263    1.3949597112
H        2.5783692771   -2.4589339318   -0.1020018611
H        3.6684373409   -3.7199631454    3.8573714198
H        0.9505182551   -0.8668315598    0.8439728635
H        2.0778736809   -2.1218381544    4.8199869728
H        0.7024157835   -4.4298704377    5.5658657135
H        0.5480178813   -6.3896790837    4.0679398255
H       -2.4306240349   -2.5095439651    3.3285087509
H        0.2042640974    0.4250071348    2.7749844964
H       -0.9893701979    0.4122870089    4.7728653780
29   

C        3.4620708599   -3.0065233077    1.7369229927
C        2.7925324446   -2.0836189952    0.9314268438
C        3.1263360585   -3.1172965900    3.0875082666
C        1.7791146221   -1.2848498101    1.4726140760
C        2.1128951922   -2.3193097079    3.6298265513
C       -0.0948381853   -4.4990426740    4.8131091256
C       -0.2639744273   -5.6467840463    4.0369142297
C       -1.8964636033   -3.4403528373    3.6100246262
C        1.4007154955   -1.4117926201    2.8253416686
C       -0.9041051825   -3.3777303422    4.5976835275
C       -1.2427241642   -5.7030260624    3.0378487725
C       -2.0710554941   -4.5858846257    2.8232690977
C        0.3485800079   -0.5186111927    3.3172241204
C       -0.4185660792   -0.5318434065    4.4236353826
O       -1.9391843666   -1.5880224882    6.3384553206
O        0.4474112475   -2.0146358177    6.5273895914
S       -0.6950291434   -1.8740290288    5.6085683920
Cl      -1.4191410517   -7.1597824736    2.0840016610
Cl      -3.3156216119   -4.6031954262    1.5925686832
H        4.2484249031   -3.6252329812    1.3189251632
H        3.0600570511   -1.9848847821   -0.1146524459
H        3.6620939443   -3.8133860968    3.7230009279
H        1.2775889261   -0.5739743751    0.8253130508
H        1.9268665484   -2.4022729197    4.6894619606
H        0.6660122993   -4.4803577833    5.5896442455
H        0.3683807055   -6.5095539055    4.2098801776
H       -2.5484913319   -2.5881553531    3.4441825393
H        0.1412865048    0.3219394959    2.6626947845
H       -1.0366737242    0.3280665865    4.6336441347
29   

C        2.4745838727   -3.0687439505    0.1960149836
C        3.2869201721   -2.1549219038    0.8681618881
C        1.1476595485   -3.2354088128    0.5942751468
C        2.7752897848   -1.4186723338    1.9424313075
C        0.6346480022   -2.4991535486    1.6680051594
C       -0.3630706166   -3.5505178418    5.8165725857
C        0.0838955886   -4.8344076133    6.1365612818
C       -1.3061738503   -4.4104932381    3.7710086852
C        1.4434006004   -1.5927882359    2.3768946470
C       -1.0500729742   -3.3227617877    4.6195263839
C       -0.1506962911   -5.9149709134    5.2778123362
C       -0.8579161353   -5.7002550223    4.0808558173
C        1.0039482807   -0.7582949509    3.4965637351
C       -0.1472019334   -0.6230432418    4.1848405518
O       -2.3127491921   -1.6416314463    2.8825437436
O       -2.5232241140   -1.1545112362    5.2592970803
S       -1.6402238656   -1.6491598918    4.1922132522
Cl       0.4321697511   -7.5067174610    5.7137107193
Cl      -1.1892016664   -7.0154254089    2.9742224151
H        2.8683868121   -3.6395668257   -0.6376348475
H        4.3153580543   -2.0141953216    0.5550495483
H        0.5068893118   -3.9304662694    0.0631634484
H        3.4317993572   -0.7137034865    2.4401332334
H       -0.4045729443   -2.6437591288    1.9028609783
H       -0.1778333960   -2.7289822872    6.5031785742
H        0.6186141337   -5.0021664990    7.0640681828
H       -1.8675371531   -4.2607793594    2.8527084437
H        1.7612129263   -0.0578195649    3.8333891831
H       -0.2240037422    0.1910018880    4.8898403594
