33   
Generated by ForceBalance from scan.xyz: Frame 1 of 9
C       -0.7739599818    1.2857245873    1.4981840991
C       -0.8700614196    0.0534731665    0.8517969972
C       -2.4938697467   -5.6930327904    1.7454653521
C       -1.6959351363    1.6681097131    2.4993501683
C       -3.3772295748   -4.6198796200    1.6013818534
C       -1.8717207082   -0.8856068724    1.1935012655
C       -1.5665362042   -5.7125594799    2.7905811586
C       -2.4233074651   -3.5637968741    3.5568047791
C       -4.7394180108   -0.0538426326    3.0172956934
C       -2.7295751363    0.7999942043    2.8131632420
C       -3.3501368819   -3.5521814284    2.5069940930
C       -4.0261026657    0.9410561817    3.6311539412
C       -2.8154165306   -0.4829951464    2.1142639749
C       -1.5454574967   -4.6394900147    3.6838116301
C       -4.3367538169   -2.4103271767    2.3622302897
C       -4.5207413624    2.1786277152    4.3047895099
N       -3.7956456377   -1.1514532156    2.9094434570
O       -4.2026062779    3.3996285207    3.6232542758
Cl      -0.3785952766   -4.6416730656    4.9985754984
H        0.0212656180    1.9720628117    1.2192659358
H       -0.1475121370   -0.2041439398    0.0818190458
H       -2.5190219052   -6.5173969397    1.0378591706
H       -1.6130621445    2.6354119574    2.9861514414
H       -4.0860224199   -4.6107216193    0.7764190991
H       -1.8907038694   -1.8732360171    0.7430218920
H       -0.8702884895   -6.5368142483    2.9076625912
H       -2.3791842053   -2.7327824517    4.2524189789
H       -5.7836817154   -0.3107314961    3.2122048595
H       -4.6325935631   -2.3119796048    1.3082592035
H       -5.2418967823   -2.6462568262    2.9344624111
H       -5.6049586713    2.0894460763    4.4681721466
H       -4.0507584350    2.2743278304    5.2893241915
H       -4.4263844518    3.2779376072    2.6867232507
33   
Generated by ForceBalance from scan.xyz: Frame 2 of 9
C       -0.7662270019    1.3071421426    1.5009204734
C       -0.8335047295    0.0420368578    0.8974898172
C       -2.4891920972   -5.7045322511    1.7382055569
C       -1.7149755703    1.7115163297    2.4518997663
C       -3.3625386053   -4.6271263709    1.5670829604
C       -1.8349960520   -0.8816370766    1.2397746878
C       -1.5888365696   -5.7256739306    2.8066311870
C       -2.4533987290   -3.5701985982    3.5435251352
C       -4.7339078283   -0.1094869277    3.1517599819
C       -2.7519140523    0.8341600781    2.7743368535
C       -3.3522011802   -3.5572799853    2.4701414659
C       -3.9875908570    0.9575657791    3.5936911624
C       -2.8051680919   -0.4582497662    2.1386385289
C       -1.5842762545   -4.6495856112    3.6965382046
C       -4.3305104014   -2.4111414954    2.2969626516
C       -4.4703375019    2.1782866712    4.3078932812
N       -3.8115079458   -1.1546658597    2.8526471806
O       -4.3073468212    3.3980157903    3.5681226686
Cl      -0.4499764331   -4.6513037113    5.0389390668
H        0.0319980367    1.9884586414    1.2183739603
H       -0.0861796125   -0.2378910864    0.1596527803
H       -2.5006340522   -6.5311954786    1.0329916735
H       -1.6636179212    2.6966715243    2.9060559939
H       -4.0493868347   -4.6165533986    0.7237464186
H       -1.8446829545   -1.8791942009    0.8118075993
H       -0.9001128047   -6.5531493655    2.9437667715
H       -2.4218738294   -2.7367353509    4.2370184306
H       -5.7296200299   -0.3921090178    3.4915539794
H       -4.5937248139   -2.3091477193    1.2354569951
H       -5.2531224627   -2.6458138680    2.8397927410
H       -5.5204528192    2.0366014292    4.6022118764
H       -3.8921389945    2.3286204540    5.2255799217
H       -4.6301618890    3.2357765833    2.6673488107
33   
Generated by ForceBalance from scan.xyz: Frame 3 of 9
C       -0.7665651090    1.3409499806    1.4688332915
C       -0.8114727202    0.0595055515    0.8861757748
C       -2.4768418310   -5.6961708523    1.7404358898
C       -1.7278517803    1.7484251396    2.3974308421
C       -3.3381137424   -4.6151652879    1.5333406822
C       -1.8083221709   -0.8617189442    1.2249114976
C       -1.6228501410   -5.7211247811    2.8459979499
C       -2.5076450813   -3.5620473250    3.5460690266
C       -4.6816158483   -0.1539419074    3.2774680261
C       -2.7584397943    0.8586125218    2.7313533827
C       -3.3609688970   -3.5461982093    2.4365969517
C       -3.9499502588    0.9696144356    3.5786028921
C       -2.7878087685   -0.4382870243    2.1231103061
C       -1.6508768683   -4.6453036961    3.7361335191
C       -4.3291147711   -2.3962674571    2.2269475444
C       -4.4101485395    2.1780048950    4.3288321748
N       -3.8220228357   -1.1353759822    2.7632978244
O       -4.3932182093    3.3857534045    3.5509397992
Cl      -0.5758379599   -4.6533252786    5.1259379141
H        0.0288240331    2.0247417471    1.1841544492
H       -0.0502390748   -0.2254317939    0.1647178244
H       -2.4614454738   -6.5224229517    1.0348527679
H       -1.6959159960    2.7417842975    2.8352951969
H       -3.9891736201   -4.6015333127    0.6621269903
H       -1.8122553477   -1.8616897930    0.8023237791
H       -0.9440441637   -6.5515413977    3.0117518023
H       -2.5001910782   -2.7278835956    4.2397610122
H       -5.6424218787   -0.4503458569    3.6875613360
H       -4.5673407472   -2.3055023195    1.1590475088
H       -5.2658375065   -2.6177379272    2.7495521290
H       -5.4131742213    1.9941902316    4.7407502192
H       -3.7425041910    2.3812437675    5.1723603051
H       -4.7963366276    3.1812763795    2.6921220203
33   
Generated by ForceBalance from scan.xyz: Frame 4 of 9
C       -0.7525659431    1.3484973252    1.4608496405
C       -0.7928147965    0.0673466105    0.8692401263
C       -2.4829118881   -5.7170369523    1.7955819965
C       -1.7250837877    1.7526455166    2.3737466418
C       -3.3366740052   -4.6422033010    1.5327434901
C       -1.8011266443   -0.8453293589    1.1810325853
C       -1.6578181677   -5.7086166826    2.9230981180
C       -2.5557556527   -3.5273960530    3.5322019063
C       -4.6351245320   -0.2144229490    3.3458219674
C       -2.7605853107    0.8583369158    2.6955962102
C       -3.3802875353   -3.5459151631    2.4015877286
C       -3.9296556488    0.9488883347    3.5505419534
C       -2.7852484938   -0.4285994603    2.0840128943
C       -1.7065718162   -4.6054555779    3.7782393763
C       -4.3401536045   -2.4001527805    2.1302037016
C       -4.3555626936    2.1248671791    4.3707308962
N       -3.8597350367   -1.1240534201    2.6332430461
O       -4.4467010280    3.3452521813    3.6166967673
Cl      -0.6679448627   -4.5713068971    5.1946760061
H        0.0510082706    2.0298125698    1.1938313608
H       -0.0193993325   -0.2176532412    0.1609208630
H       -2.4506376368   -6.5647911748    1.1165970992
H       -1.6992325652    2.7436650190    2.8174681763
H       -3.9651284840   -4.6549312938    0.6449995046
H       -1.8110489353   -1.8387879862    0.7429975181
H       -0.9850528835   -6.5341880751    3.1320484032
H       -2.5629142534   -2.6719642078    4.1997256076
H       -5.5641636702   -0.5367958682    3.8017985797
H       -4.5407812213   -2.3373158375    1.0530402744
H       -5.2963011469   -2.6054493524    2.6224175770
H       -5.3116262345    1.9027040692    4.8668391227
H       -3.6208980200    2.3375600897    5.1539235032
H       -4.9155862624    3.1394247019    2.7922815419
33   
Generated by ForceBalance from scan.xyz: Frame 5 of 9
C       -0.7367771588    1.3611749244    1.4728309698
C       -0.8142660022    0.1536515321    0.7426943102
C       -2.5699509316   -5.7831861252    2.0560107366
C       -1.6991749431    1.6913567604    2.4233596420
C       -3.3843975101   -4.7391488978    1.6108775960
C       -1.8580729635   -0.7482318353    0.9418330294
C       -1.7838937519   -5.6309126865    3.2017480998
C       -2.6427978343   -3.3652309785    3.4586982367
C       -4.5957324956   -0.3596368438    3.2878122617
C       -2.7588192830    0.7944847944    2.6512420440
C       -3.4278668554   -3.5282899283    2.3127805300
C       -3.8963672828    0.7989796715    3.5433800295
C       -2.8272245703   -0.4074406514    1.8935372101
C       -1.8317351204   -4.4162116908    3.8880223679
C       -4.3482648560   -2.4139438739    1.8369187213
C       -4.2506883373    1.8558761857    4.5413232838
N       -3.9634229412   -1.0961611884    2.2962868555
O       -4.4287911012    3.1549641010    3.9504998356
Cl      -0.8430891939   -4.2004727844    5.3235985149
H        0.0910587302    2.0401259755    1.2861257511
H       -0.0429287433   -0.0785268187    0.0132152960
H       -2.5378775718   -6.7203994923    1.5069937690
H       -1.6430602361    2.6247143163    2.9761123822
H       -3.9841630495   -4.8663274033    0.7121102133
H       -1.9037274816   -1.6821731211    0.3889653784
H       -1.1418984380   -6.4327596718    3.5520523674
H       -2.6496955295   -2.4264954232    4.0026081647
H       -5.5031125780   -0.7327292406    3.7469051021
H       -4.3925538963   -2.4181983565    0.7416802695
H       -5.3663782472   -2.6027358863    2.1922736077
H       -5.1513514331    1.5556547851    5.0962613610
H       -3.4446981024    1.9921198160    5.2692474913
H       -4.9791434152    3.0378946119    3.1596981396
33   
Generated by ForceBalance from scan.xyz: Frame 6 of 9
C       -0.7421702662    1.3998682937    1.4960828114
C       -0.8182754123    0.2267720140    0.7137325483
C       -2.5946088864   -5.7350545031    2.2264767197
C       -1.7165746480    1.6971817556    2.4467996483
C       -3.4009348206   -4.7251466204    1.6971773052
C       -1.8771812169   -0.6704540719    0.8525876511
C       -1.8014854422   -5.4927365336    3.3521221371
C       -2.6391347494   -3.2047806385    3.4166905207
C       -4.5420286132   -0.4447860534    3.2924093705
C       -2.7789014126    0.7949923069    2.6277435424
C       -3.4306441085   -3.4568826727    2.2917036218
C       -3.9082575354    0.7510364152    3.5372009038
C       -2.8461681544   -0.3737280124    1.8165914770
C       -1.8356599098   -4.2235683335    3.9310422566
C       -4.3389152403   -2.3820475133    1.7102306783
C       -4.2206648134    1.7315499337    4.6235311530
N       -4.0375000323   -1.0261013551    2.1309319020
O       -4.4971811958    3.0503187089    4.1224921927
Cl      -0.8387160593   -3.8936943357    5.3396920257
H        0.0948207183    2.0780606162    1.3525111962
H       -0.0361848005    0.0177960479   -0.0112963044
H       -2.5748582069   -6.7163656237    1.7601181838
H       -1.6608680423    2.6060317435    3.0392763354
H       -4.0069931317   -4.9238986699    0.8156391742
H       -1.9279855533   -1.5720788623    0.2488407905
H       -1.1660870869   -6.2680030164    3.7680749233
H       -2.6338449109   -2.2261059942    3.8844247263
H       -5.4227999456   -0.8616036366    3.7666746998
H       -4.2957187176   -2.4219144967    0.6166176730
H       -5.3784881030   -2.5888964419    1.9854817668
H       -5.0610610202    1.3615191699    5.2285035029
H       -3.3640621747    1.8639962004    5.2917406254
H       -5.1165892615    2.9535196518    3.3815478073
33   
Generated by ForceBalance from scan.xyz: Frame 7 of 9
C       -0.7005224065    1.3698278944    1.4957050531
C       -0.7605934100    0.1713762998    0.7561520486
C       -2.6103838380   -5.7106703656    2.1881211029
C       -1.7005874594    1.7055264112    2.4103518099
C       -3.4142213491   -4.6929605565    1.6700175603
C       -1.8314019135   -0.7163201920    0.8943695144
C       -1.8164320412   -5.4825437431    3.3159663514
C       -2.6480902605   -3.1932148931    3.4038716471
C       -4.4397368523   -0.4794629958    3.3606992972
C       -2.7626904932    0.8105941594    2.6017417214
C       -3.4416840002   -3.4303032498    2.2770032170
C       -3.9030765222    0.7782182797    3.5140312752
C       -2.8098602779   -0.3937483817    1.8356164697
C       -1.8472118966   -4.2192527734    3.9076677465
C       -4.3524390994   -2.3518627016    1.7054679530
C       -4.1973508200    1.7615909839    4.6036845442
N       -4.0567747489   -0.9821367372    2.1031096751
O       -4.5784165012    3.0494017404    4.0914315031
Cl      -0.8493123154   -3.9070856148    5.3198175981
H        0.1433607328    2.0393057194    1.3517095883
H        0.0402319779   -0.0669265022    0.0612182858
H       -2.5934380506   -6.6869853039    1.7112650923
H       -1.6563156014    2.6363985498    2.9689335829
H       -4.0211631635   -4.8811932129    0.7868093043
H       -1.8763572618   -1.6321283918    0.3120346739
H       -1.1830541208   -6.2636897158    3.7239250088
H       -2.6380755752   -2.2199997520    3.8833064536
H       -5.3022514882   -0.9108736825    3.8595248635
H       -4.3238694999   -2.3965588696    0.6118019189
H       -5.3891374250   -2.5563272803    1.9941290111
H       -4.9773519129    1.3605863579    5.2668554419
H       -3.3093900518    1.9573006361    5.2126979543
H       -5.2416902339    2.9007024901    3.3984684060
33   
Generated by ForceBalance from scan.xyz: Frame 8 of 9
C       -0.6757237223    1.3571308109    1.5086055311
C       -0.6991753547    0.1322862277    0.8218270049
C       -2.6547023853   -5.7028181198    2.1640063059
C       -1.7147791980    1.7249300723    2.3752791172
C       -3.4562242760   -4.6740031927    1.6649623271
C       -1.7731390390   -0.7616397888    0.9545086759
C       -1.8338238932   -5.4867822869    3.2749943036
C       -2.6345836367   -3.1877846428    3.3830904006
C       -4.3224923380   -0.5125283984    3.4295640107
C       -2.7660960435    0.8292325036    2.5748910529
C       -3.4555264556   -3.4111059094    2.2730896621
C       -3.9293590504    0.8031977308    3.4994905231
C       -2.7699724291   -0.4225224658    1.8605373408
C       -1.8361828954   -4.2243531083    3.8687891494
C       -4.3643327599   -2.3230453520    1.7159711110
C       -4.2139977124    1.7988512149    4.5802176874
N       -4.0669849862   -0.9413966806    2.0933684262
O       -4.7081021732    3.0397924523    4.0504443737
Cl      -0.8044915315   -3.9252145097    5.2596700914
H        0.1678842661    2.0277529388    1.3684104991
H        0.1282899041   -0.1278617788    0.1670041548
H       -2.6606193991   -6.6784106150    1.6853661698
H       -1.6947319624    2.6812941804    2.8911498504
H       -4.0841116940   -4.8531355445    0.7946076799
H       -1.7964985628   -1.6937702414    0.3975279279
H       -1.2017961679   -6.2765068590    3.6682161171
H       -2.5988625276   -2.2163466950    3.8652544851
H       -5.1437190180   -0.9834051851    3.9674862427
H       -4.3504866215   -2.3703391017    0.6220904480
H       -5.3988729165   -2.5218509490    2.0173654536
H       -4.9250574935    1.3721477905    5.3021843092
H       -3.3043760204    2.0711801774    5.1241609536
H       -5.4169873490    2.8266355010    3.4223407340
33   
Generated by ForceBalance from scan.xyz: Frame 9 of 9
C       -0.6623552296    1.3882600713    1.5116762817
C       -0.6189282133    0.1367415276    0.8941018514
C       -2.7611055711   -5.7258508821    2.1608864847
C       -1.7579963269    1.7758798954    2.3145900561
C       -3.5391109258   -4.6714841884    1.6793347797
C       -1.6808696470   -0.7877217007    1.0178551740
C       -1.8898573820   -5.5311877144    3.2371965504
C       -2.5934294091   -3.1998346328    3.3430707444
C       -4.1733863305   -0.5279579508    3.4760732555
C       -2.7827637538    0.8668170725    2.5182588002
C       -3.4658309500   -3.4008749865    2.2685147364
C       -3.9847824617    0.8280205666    3.4760861357
C       -2.7104399584   -0.4439359676    1.8694072945
C       -1.8195055330   -4.2626721220    3.8125121544
C       -4.3577465860   -2.2911193098    1.7250175506
C       -4.2666911578    1.8356514430    4.5451296645
N       -4.0459521849   -0.9007166221    2.0790069646
O       -4.9013697953    3.0079119829    4.0115439480
Cl      -0.7247625179   -3.9878071687    5.1597370999
H        0.1686373643    2.0757695285    1.3779889679
H        0.2456547427   -0.1319458240    0.2928259404
H       -2.8252215719   -6.7059383232    1.6958488857
H       -1.7818190235    2.7604931175    2.7750906396
H       -4.2074137715   -4.8359422875    0.8366258683
H       -1.6592971963   -1.7392419871    0.4945819372
H       -1.2757323073   -6.3412811772    3.6171388577
H       -2.4941657683   -2.2263658148    3.8114659715
H       -4.8951530926   -1.0837331067    4.0785180550
H       -4.3592558623   -2.3426495607    0.6309928297
H       -5.3919335433   -2.4736737171    2.0393078414
H       -4.8844150012    1.3798013357    5.3323625485
H       -3.3442057021    2.2014446685    5.0060792971
H       -5.6515326345    2.7144550095    3.4695196523
