22   
Generated by ForceBalance from scan.xyz: Frame 1 of 24
C        5.6928738891    1.3791625820    1.1722772248
C        5.7967663152    0.0284444385    1.5248064225
C        4.5278344509    1.8529985847    0.5601862801
C        4.7421468602   -0.8456097539    1.2622525975
C        3.4745251270    0.9771524773    0.2877170486
C       -1.0505658587   -2.5262970042   -2.4124384024
C       -1.1239477011   -3.5550637179   -1.5170514235
C        3.5784928656   -0.3809464524    0.6303926054
C        0.5523345475   -1.8672432940   -1.0520123005
C        2.4933019768   -1.3782833967    0.3790146441
N       -0.0944762929   -1.5674031601   -2.1491810895
N        1.5583455020   -1.0312503690   -0.5786494984
O        2.4167343777   -2.4454945074    0.9855658836
S        0.0707237970   -3.3534422696   -0.2636340129
H        6.5126716854    2.0615372707    1.3807338514
H        6.6982024010   -0.3405512075    2.0065352483
H        4.4359055367    2.9045092466    0.3023864066
H        4.7982196775   -1.8937573530    1.5385259607
H        2.5651791150    1.3747994012   -0.1555797049
H       -1.6731453138   -2.4186633390   -3.2938837952
H       -1.7810417471   -4.4148551508   -1.5282215139
H        1.7304994327   -0.2382415021   -1.1855303464
22   
Generated by ForceBalance from scan.xyz: Frame 2 of 24
C        5.7002136323    1.3612659534    1.1280591683
C        5.8159075786    0.0014198771    1.4395958231
C        4.5070716039    1.8555318608    0.5908500552
C        4.7439190157   -0.8610038885    1.2109958994
C        3.4363220560    0.9912082386    0.3513266482
C       -0.9268612679   -2.5969214958   -2.4931590673
C       -1.1450459352   -3.5355040131   -1.5247294008
C        3.5512040491   -0.3755613620    0.6533535055
C        0.5069410513   -1.8403420203   -1.0008316346
C        2.4483021088   -1.3610907323    0.4328273253
N        0.0193750221   -1.6374739950   -2.1976442092
N        1.4673633013   -0.9788252005   -0.4722639184
O        2.3882169233   -2.4347745614    1.0259663303
S       -0.1105447790   -3.2399249870   -0.1545187526
H        6.5334266476    2.0347989094    1.3104614742
H        6.7395853601   -0.3835025995    1.8632547864
H        4.4072950742    2.9138381185    0.3658015177
H        4.8088936327   -1.9160427904    1.4575606414
H        2.5063184081    1.4019533464   -0.0329918840
H       -1.4259296577   -2.5641710911   -3.4554011624
H       -1.8119587440   -4.3874372310   -1.5467913985
H        1.6730556554   -0.2120501617   -1.1033148306
22   
Generated by ForceBalance from scan.xyz: Frame 3 of 24
C        5.7049864278    1.3577865670    1.0981402415
C        5.8379103667   -0.0109213878    1.3603099476
C        4.4872688904    1.8629554839    0.6308837558
C        4.7598541968   -0.8711452165    1.1528827661
C        3.4094686146    1.0018482312    0.4116905830
C       -0.8037127840   -2.6703155781   -2.5338574195
C       -1.1954033975   -3.4816185542   -1.5061466784
C        3.5419943161   -0.3731264704    0.6649840381
C        0.4772735365   -1.8107620949   -0.9594588357
C        2.4327102260   -1.3561300790    0.4606924208
N        0.1559847687   -1.7289291476   -2.2242233941
N        1.4107016370   -0.9373515458   -0.3919000670
O        2.3983811276   -2.4445230019    1.0233659227
S       -0.3247055578   -3.0721016716   -0.0565301162
H        6.5436253595    2.0288114833    1.2644169473
H        6.7809620643   -0.4049035757    1.7294410576
H        4.3742039430    2.9274153133    0.4443973623
H        4.8394138103   -1.9332069798    1.3622851430
H        2.4614269103    1.4188460468    0.0824468826
H       -1.1762957156   -2.7277454433   -3.5506361839
H       -1.8989278780   -4.3036501018   -1.5225430796
H        1.6375074654   -0.1859463895   -1.0351902188
22   
Generated by ForceBalance from scan.xyz: Frame 4 of 24
C        5.6784358767    1.3505464149    1.1184568812
C        5.8362659016   -0.0293645979    1.2947389428
C        4.4420621513    1.8665384620    0.7166093185
C        4.7633397111   -0.8907777625    1.0666296668
C        3.3688177561    1.0051846446    0.4762265334
C       -0.6953087060   -2.7845364808   -2.5850613427
C       -1.2948413809   -3.3842056835   -1.5122421730
C        3.5266808809   -0.3800782105    0.6436899662
C        0.4539474302   -1.7805086701   -0.9935346595
C        2.4210988867   -1.3617913204    0.4112657121
N        0.3064180209   -1.8842247003   -2.2873902313
N        1.3853611021   -0.9052522616   -0.4147028331
O        2.4016251520   -2.4717450310    0.9256429808
S       -0.5904176964   -2.8001138642   -0.0359449722
H        6.5133997483    2.0219272345    1.3010930516
H        6.7945396348   -0.4310306953    1.6129199599
H        4.3112039501    2.9387016903    0.5980033958
H        4.8616928288   -1.9622760853    1.2099646657
H        2.4051754057    1.4240166987    0.1990531512
H       -0.9387507956   -2.9792659544   -3.6236830679
H       -2.0676584622   -4.1416015891   -1.5042650043
H        1.6422826687   -0.1664740623   -1.0615668611
22   
Generated by ForceBalance from scan.xyz: Frame 5 of 24
C        5.6719841825    1.3634132532    1.1586980562
C        5.8586828870   -0.0217387711    1.2416204996
C        4.4186793543    1.8790156566    0.8127996580
C        4.7980848008   -0.8879537989    0.9765406587
C        3.3577071981    1.0131294805    0.5359371780
C       -0.5909219862   -2.9363952089   -2.5572480906
C       -1.3597791883   -3.2947468511   -1.4832992815
C        3.5439981030   -0.3765051227    0.6101678150
C        0.4603544884   -1.7520534311   -1.0228062228
C        2.4502748860   -1.3607250657    0.3344395782
N        0.4483557650   -2.0713554197   -2.2879598586
N        1.3977480561   -0.8699070693   -0.4538382663
O        2.4534892447   -2.4985701561    0.7811884127
S       -0.7831393189   -2.5021529172   -0.0531946501
H        6.4974650646    2.0380832147    1.3702086637
H        6.8301799227   -0.4238832074    1.5161455307
H        4.2653825930    2.9538033171    0.7664707038
H        4.9195138934   -1.9643161261    1.0478509584
H        2.3805106404    1.4271247193    0.3029088948
H       -0.7342803218   -3.2923650360   -3.5715047076
H       -2.1972748966   -3.9792947004   -1.4503642734
H        1.6529587195   -0.1209629564   -1.0894144832
22   
Generated by ForceBalance from scan.xyz: Frame 6 of 24
C        5.6810272724    1.3585692251    1.1951085824
C        5.8864141484   -0.0264425090    1.1973299510
C        4.4155398477    1.8764984039    0.9008518797
C        4.8315059374   -0.8901835656    0.9029014193
C        3.3600226015    1.0134711913    0.5952728848
C       -0.4975551023   -3.0859843232   -2.4692925019
C       -1.4024474072   -3.2268910242   -1.4506195113
C        3.5648198791   -0.3754232838    0.5884707272
C        0.4632215905   -1.7281687097   -1.0232856519
C        2.4772044654   -1.3568767848    0.2784984625
N        0.5632534799   -2.2443404388   -2.2162281170
N        1.4012366343   -0.8386551510   -0.4582078872
O        2.5020831241   -2.5178045282    0.6593463450
S       -0.9295347072   -2.2464510559   -0.1046337343
H        6.5020254908    2.0312026754    1.4293857974
H        6.8676379495   -0.4303578308    1.4318394165
H        4.2486959912    2.9501709721    0.9173755162
H        4.9668481146   -1.9672227208    0.9114767061
H        2.3734135407    1.4263018226    0.4034506145
H       -0.5571363843   -3.5905029080   -3.4274024602
H       -2.2896102558   -3.8458876494   -1.4178354351
H        1.6277836105   -0.0545255461   -1.0610051979
22   
Generated by ForceBalance from scan.xyz: Frame 7 of 24
C        5.6657325966    1.3613259568    1.2015523337
C        5.8912477517   -0.0190518854    1.1384371971
C        4.3856362723    1.8709760239    0.9611477994
C        4.8421671500   -0.8860730139    0.8325050876
C        3.3361106116    1.0048608412    0.6435952858
C       -0.4377843749   -3.2084841473   -2.3966917195
C       -1.4745867526   -3.1333036640   -1.5032881330
C        3.5606842021   -0.3789958318    0.5707725083
C        0.4498920929   -1.7214544960   -1.0334117924
C        2.4808143416   -1.3651426883    0.2437279352
N        0.6504782752   -2.4130772302   -2.1193565256
N        1.3853425121   -0.8377972175   -0.4523049124
O        2.5298468664   -2.5380680279    0.5822659681
S       -1.0857146099   -2.0101608199   -0.2469638049
H        6.4822289052    2.0362109177    1.4449057756
H        6.8838914570   -0.4172113755    1.3310611124
H        4.2028837412    2.9400567539    1.0289488618
H        4.9935860261   -1.9601858520    0.7908453637
H        2.3392414756    1.4111290903    0.4949017136
H       -0.4220767929   -3.8409493644   -3.2775591134
H       -2.4154285382   -3.6681269825   -1.5178414425
H        1.5677083788    0.0006560366   -0.9929834687
22   
Generated by ForceBalance from scan.xyz: Frame 8 of 24
C        5.6705043232    1.4026610465    1.2275771368
C        5.9419379605    0.0350383755    1.1012921044
C        4.3686191677    1.8758445528    1.0348965044
C        4.9166328422   -0.8547243197    0.7801033617
C        3.3435030767    0.9866153950    0.7014197531
C       -0.3910784350   -3.3414457477   -2.2702601103
C       -1.5196646795   -3.0138993931   -1.5648882888
C        3.6128718548   -0.3842906182    0.5645443384
C        0.4951076163   -1.7537502530   -1.0249533162
C        2.5622891895   -1.3990282199    0.2215057768
N        0.7420865240   -2.6262525703   -1.9592865898
N        1.4441058716   -0.8893977271   -0.4445870458
O        2.6606583730   -2.5776370159    0.5255735110
S       -1.1558866182   -1.7595949600   -0.4304845687
H        6.4680688960    2.0953418013    1.4833207026
H        6.9514982903   -0.3358370394    1.2570491842
H        4.1498350858    2.9337853503    1.1525697791
H        5.1038372653   -1.9202366928    0.6911622337
H        2.3308440663    1.3662422122    0.5925140575
H       -0.3412461227   -4.1038857791   -3.0399549308
H       -2.5144426615   -3.4309479091   -1.6539784859
H        1.5447984279    0.0189954381   -0.8816859566
22   
Generated by ForceBalance from scan.xyz: Frame 9 of 24
C        5.6268281121    1.4726164996    1.3064642669
C        5.9847446120    0.1354974060    1.0972458372
C        4.2951465661    1.8694264666    1.1497160810
C        5.0172661412   -0.7995779378    0.7289160758
C        3.3277521974    0.9360146118    0.7679189237
C       -0.4712878355   -3.4844547312   -2.0427624147
C       -1.5876126943   -2.8010930004   -1.6443301657
C        3.6838296009   -0.4039135861    0.5467785065
C        0.5648453872   -1.8163780282   -1.0433327499
C        2.7007776838   -1.4698517403    0.1530023007
N        0.7395000761   -2.9189822164   -1.7091869984
N        1.5788546298   -0.9997203047   -0.5320670949
O        2.8741514099   -2.6488437450    0.4139635622
S       -1.1226301350   -1.3852114614   -0.7558053213
H        6.3798162220    2.1996891079    1.5990787640
H        7.0175864332   -0.1772153658    1.2253656056
H        4.0080536765    2.9014052372    1.3327128167
H        5.2730359277   -1.8435728999    0.5774875686
H        2.2922823615    1.2589565974    0.6901225597
H       -0.4822349307   -4.4100026507   -2.6080773248
H       -2.6274070599   -3.0376821474   -1.8279882086
H        1.5459463240   -0.0181589945   -0.7721026341
22   
Generated by ForceBalance from scan.xyz: Frame 10 of 24
C        5.5907532799    1.4922709854    1.3420531347
C        6.0057984005    0.1835968436    1.0685112244
C        4.2405834643    1.8342124202    1.2183456546
C        5.0767375449   -0.7769114295    0.6686000791
C        3.3109234110    0.8757645613    0.8060671243
C       -0.5415979537   -3.5688649240   -1.8618728407
C       -1.5930496176   -2.7049770632   -1.7401284221
C        3.7241842844   -0.4352981903    0.5196595823
C        0.5954652406   -1.8720583814   -1.0387326513
C        2.7870552311   -1.5305543695    0.0922792876
N        0.6928564627   -3.0915579064   -1.4740917287
N        1.6347751023   -1.0780006963   -0.5569463198
O        3.0260300667   -2.7092658681    0.2910539224
S       -1.0431197244   -1.2015083009   -1.0603037421
H        6.3138651095    2.2391675378    1.6589992273
H        7.0531720995   -0.0873462625    1.1711383777
H        3.9095042870    2.8426519002    1.4512653825
H        5.3772644129   -1.8003897177    0.4675534440
H        2.2611886407    1.1560576958    0.7572640030
H       -0.6140575094   -4.5775359242   -2.2540699347
H       -2.6298613829   -2.8533462975   -2.0109227184
H        1.5526604847   -0.0835444327   -0.7171729184
22   
Generated by ForceBalance from scan.xyz: Frame 11 of 24
C        5.5556536944    1.4983276490    1.3598987029
C        6.0105725084    0.2205514855    1.0129398076
C        4.1915655237    1.7963161661    1.2851319302
C        5.1069802645   -0.7534175212    0.5882704443
C        3.2869574662    0.8246797452    0.8484946152
C       -0.6254097689   -3.5956812489   -1.7148475730
C       -1.5808221575   -2.6332497720   -1.8717735148
C        3.7397860681   -0.4547424287    0.4880149882
C        0.5994821809   -1.8928555719   -1.0475855814
C        2.8303260502   -1.5616440104    0.0313383699
N        0.6060189192   -3.1740253793   -1.2560966338
N        1.6541119443   -1.1148184295   -0.5802138356
O        3.1112474396   -2.7389279323    0.1727540704
S       -0.9394532940   -1.0847614775   -1.3989498012
H        6.2594608613    2.2551231398    1.6961918718
H        7.0692343677   -0.0159704137    1.0779801166
H        3.8306044303    2.7792509498    1.5756055095
H        5.4388926891   -1.7543817728    0.3308888112
H        2.2264851072    1.0659483779    0.8395357544
H       -0.7685129513   -4.6479421144   -1.9358645861
H       -2.5960134651   -2.7323978670   -2.2317038560
H        1.5666354407   -0.1181746276   -0.7237046983
22   
Generated by ForceBalance from scan.xyz: Frame 12 of 24
C        5.5342645453    1.5023086687    1.3787460086
C        6.0137809933    0.2543781780    0.9627854646
C        4.1605326158    1.7622486769    1.3578353201
C        5.1251033913   -0.7264993879    0.5228972195
C        3.2698957520    0.7844586154    0.9061849467
C       -0.6959488620   -3.6007884314   -1.5590747979
C       -1.5387918086   -2.6160364221   -1.9864663165
C        3.7476459235   -0.4641005482    0.4765230894
C        0.5964518594   -1.8983870326   -1.0345877825
C        2.8539197666   -1.5734123089   -0.0031928635
N        0.5097402865   -3.1934032219   -1.0245265772
N        1.6566854432   -1.1257866071   -0.5742011572
O        3.1635269098   -2.7486826277    0.0827639496
S       -0.8102286886   -1.0570428476   -1.7131809142
H        6.2265775909    2.2644005704    1.7267699573
H        7.0801819709    0.0465611359    0.9857461160
H        3.7813455765    2.7205675860    1.7023129574
H        5.4770879653   -1.7052109741    0.2120046313
H        2.2028478289    0.9920569380    0.9391723486
H       -0.9103343770   -4.6626169653   -1.6155165733
H       -2.5191668256   -2.7036822199   -2.4348446244
H        1.5720160966   -0.1288359672   -0.7184930246
22   
Generated by ForceBalance from scan.xyz: Frame 13 of 24
C        5.5266017872    1.4880769613    1.4040190576
C        6.0170830313    0.2688094803    0.9209189224
C        4.1489132489    1.7262622490    1.4250427941
C        5.1340785349   -0.7052604827    0.4554802179
C        3.2638034589    0.7551603498    0.9486903431
C       -0.7618605720   -3.5841653414   -1.4134075254
C       -1.4866385947   -2.6434996183   -2.0867779923
C        3.7519276745   -0.4640217697    0.4517504778
C        0.5831588749   -1.8852253899   -1.0278488616
C        2.8639304302   -1.5620849683   -0.0606840604
N        0.4047290267   -3.1534058176   -0.8152206269
N        1.6433634440   -1.1070864603   -0.5761936779
O        3.1943646148   -2.7347555622   -0.0477919434
S       -0.6754810629   -1.1040975204   -2.0015344199
H        6.2144589878    2.2449539189    1.7717137060
H        7.0869094140    0.0781963212    0.9115512671
H        3.7628441621    2.6615401353    1.8213445078
H        5.4941166589   -1.6626097067    0.0917623769
H        2.1943927500    0.9410933458    1.0138466265
H       -1.0451606913   -4.6267048762   -1.3161515239
H       -2.4260298744   -2.7526356487   -2.6117026159
H        1.5554045003   -0.1096161845   -0.7155424924
22   
Generated by ForceBalance from scan.xyz: Frame 14 of 24
C        5.8304567869    1.4122145117    1.1209295877
C        5.5655741280    0.3545074571    1.9995174300
C        4.9548615835    1.6751180434    0.0628493416
C        4.4337098649   -0.4399105552    1.8178789964
C        3.8263049412    0.8728588451   -0.1274301820
C       -1.2595560650   -2.8013422639   -1.0879610457
C       -0.9070665079   -3.1896959348   -2.3493180693
C        3.5637743100   -0.1957062919    0.7445682477
C        0.7469038868   -1.8957974627   -1.0987898433
C        2.3645792800   -1.0886544845    0.6110546469
N       -0.3263410693   -2.0662049029   -0.3877186003
N        1.8904967443   -1.2079101890   -0.7026968847
O        1.8699960939   -1.6749576551    1.5579081795
S        0.7068847174   -2.6424246111   -2.7032251169
H        6.7095987410    2.0344866791    1.2663615193
H        6.2402536942    0.1536455312    2.8274110787
H        5.1439322022    2.5096548426   -0.6069780895
H        4.2033154280   -1.2542214581    2.4978330020
H        3.1331792756    1.1169201565   -0.9287342423
H       -2.2137132086   -3.0186107988   -0.6200866187
H       -1.4854124070   -3.7405169832   -3.0788690199
H        2.5031244333   -0.8852568695   -1.4396139791
22   
Generated by ForceBalance from scan.xyz: Frame 15 of 24
C        5.8167664223    1.4099415854    1.1433551406
C        5.5817313200    0.3092941138    1.9765570802
C        4.9181886067    1.7103643908    0.1148486178
C        4.4562681460   -0.4904151922    1.7788405719
C        3.7957241675    0.9036618572   -0.0917102318
C       -1.3042906829   -2.7186311844   -1.0908081026
C       -0.8785819949   -3.3225715546   -2.2410248115
C        3.5631757579   -0.2072058902    0.7345780157
C        0.7325526859   -1.8801355274   -1.1051297542
C        2.3735912860   -1.1075027532    0.5782626171
N       -0.3951098377   -1.8977067491   -0.4596626318
N        1.8669071026   -1.1612743809   -0.7275734849
O        1.9050659290   -1.7514858993    1.5013442331
S        0.7760298206   -2.8915267303   -2.5532635783
H        6.6909283075    2.0361600903    1.3014360429
H        6.2744481541    0.0792291319    2.7816492700
H        5.0848356305    2.5773306912   -0.5187839267
H        4.2486644416   -1.3385334409    2.4239330053
H        3.0838467657    1.1736398715   -0.8676068057
H       -2.2969660013   -2.8273026080   -0.6674780016
H       -1.4284348504   -3.9684026502   -2.9126245622
H        2.4703225344   -0.8322977984   -1.4696267342
22   
Generated by ForceBalance from scan.xyz: Frame 16 of 24
C        5.8165398234    1.4140165288    1.1756333871
C        5.6018331879    0.2728755759    1.9582782324
C        4.9004153557    1.7568758052    0.1761785652
C        4.4788720897   -0.5248575610    1.7390094191
C        3.7804765567    0.9526588319   -0.0523427386
C       -1.3419711810   -2.6105698966   -1.1202993697
C       -0.8492742728   -3.4220654350   -2.1058955857
C        3.5681695801   -0.1980171920    0.7231374153
C        0.7212424801   -1.8376923569   -1.1140309400
C        2.3835710403   -1.0982014409    0.5384726714
N       -0.4541208257   -1.7119451642   -0.5726101019
N        1.8468517652   -1.0887181445   -0.7543453484
O        1.9346986133   -1.7963769473    1.4329609966
S        0.8365561228   -3.0922787884   -2.3480931621
H        6.6887293760    2.0384969518    1.3506949655
H        6.3083903289    0.0096570463    2.7408877076
H        5.0516727270    2.6545564965   -0.4172887359
H        4.2869193243   -1.4048418431    2.3450945807
H        3.0545792611    1.2530039065   -0.8035130673
H       -2.3679596150   -2.6187480255   -0.7687747616
H       -1.3711386076   -4.1642148358   -2.6956766980
H        2.4315960968   -0.7365177827   -1.5010232449
22   
Generated by ForceBalance from scan.xyz: Frame 17 of 24
C        5.7898530834    1.4033974492    1.1892922869
C        5.6100464700    0.2182843430    1.9130806057
C        4.8535808787    1.7778121693    0.2202556332
C        4.5017002351   -0.5916281835    1.6653198708
C        3.7483509090    0.9620388964   -0.0370265570
C       -1.3650814995   -2.5608655181   -1.2531104986
C       -0.8110265235   -3.5514256367   -2.0198867809
C        3.5712714305   -0.2322351209    0.6789118232
C        0.7225106686   -1.8573491340   -1.1651549628
C        2.4043190069   -1.1474516691    0.4604805701
N       -0.4949751581   -1.6049612384   -0.7809630838
N        1.8416969568   -1.0863741391   -0.8145378351
O        1.9827477685   -1.9036978901    1.3229480934
S        0.8993868955   -3.3122506557   -2.1387372469
H        6.6505645275    2.0370972945    1.3867023964
H        6.3321842488   -0.0697902970    2.6723828239
H        4.9778479634    2.7084720814   -0.3268750407
H        4.3363783129   -1.5061805616    2.2264044606
H        3.0067063536    1.2852242187   -0.7628995634
H       -2.4199894142   -2.4794512451   -1.0149297248
H       -1.3045500643   -4.3795477893   -2.5119187624
H        2.3758842576   -0.6548284911   -1.5575339932
22   
Generated by ForceBalance from scan.xyz: Frame 18 of 24
C        5.6143967971    1.4451907586    1.2496923327
C        5.5570236332    0.1985015265    1.8840736415
C        4.6624441837    1.7786255885    0.2812602849
C        4.5547292951   -0.7111321937    1.5476923223
C        3.6651768790    0.8632583730   -0.0652828890
C       -1.3803997449   -2.3292044325   -1.5287922895
C       -0.9707898065   -3.5890702618   -1.8797399464
C        3.6100716883   -0.3919491005    0.5605246253
C        0.7893516082   -2.0103529376   -1.3078485992
C        2.5573901747   -1.4182041762    0.2614538671
N       -0.3798147333   -1.4430124279   -1.1978413371
N        2.0116366628   -1.3709586134   -1.0206113342
O        2.2329608472   -2.2795386257    1.0675788939
S        0.7549056569   -3.6838411105   -1.8097838318
H        6.3916054336    2.1569851855    1.5153821347
H        6.2907652369   -0.0604062636    2.6427371324
H        4.6903771515    2.7535618037   -0.1977502910
H        4.4831395847   -1.6760332391    2.0396693064
H        2.9136652205    1.1612393123   -0.7924936972
H       -2.4133629646   -2.0016365457   -1.4868464396
H       -1.5771785357   -4.4426045418   -2.1540982763
H        2.2310438030   -0.5699059704   -1.5989081203
22   
Generated by ForceBalance from scan.xyz: Frame 19 of 24
C        5.5603386148    1.4580231315    1.2574839666
C        5.5786871870    0.1841404565    1.8379297193
C        4.5650470507    1.7881943681    0.3325375997
C        4.6086856161   -0.7561414492    1.4917885770
C        3.6002844062    0.8425994405   -0.0243733687
C       -1.3718528325   -2.2284973874   -1.7150386324
C       -1.0496612359   -3.5579297194   -1.7725169967
C        3.6205293476   -0.4395473175    0.5470023431
C        0.7870258276   -2.0363281410   -1.3106156922
C        2.6056347443   -1.4991881331    0.2364820521
N       -0.3288195862   -1.3707664480   -1.4396231868
N        2.0238407227   -1.4265088102   -1.0314621668
O        2.3453656092   -2.4059519995    1.0157741537
S        0.6466947072   -3.7668983829   -1.4880819567
H        6.3127917163    2.1929120016    1.5313804307
H        6.3468019115   -0.0725268882    2.5625234403
H        4.5340881059    2.7826778419   -0.1041648358
H        4.5966571689   -1.7433203013    1.9428894319
H        2.8147893236    1.1366699152   -0.7163803753
H       -2.3684050339   -1.8233518666   -1.8519735318
H       -1.7036003604   -4.4041951924   -1.9380365401
H        2.1785399247   -0.5740610682   -1.5557264780
22   
Generated by ForceBalance from scan.xyz: Frame 20 of 24
C        5.5233492643    1.4792165328    1.2856262080
C        5.5958743321    0.1896004413    1.8254866513
C        4.5053640768    1.7999132520    0.3822310454
C        4.6577309523   -0.7751429411    1.4600316387
C        3.5708077127    0.8314448127    0.0074635759
C       -1.3521136414   -2.1932812243   -1.8234473884
C       -1.1130775588   -3.5257951339   -1.6286583454
C        3.6453527338   -0.4665491084    0.5379240524
C        0.7795384282   -2.0462475850   -1.2806432816
C        2.6691914632   -1.5553415018    0.2087377889
N       -0.2788480580   -1.3537833219   -1.6092479002
N        2.0174925355   -1.4394685878   -1.0204941691
O        2.4943167425   -2.5230076876    0.9389220637
S        0.5419322083   -3.7708376453   -1.1626386786
H        6.2515539832    2.2329162746    1.5735749250
H        6.3817955662   -0.0606407684    2.5329933105
H        4.4333004989    2.8049636814   -0.0242610033
H        4.6889864425   -1.7762928016    1.8780028118
H        2.7691873368    1.1196930016   -0.6681223328
H       -2.3077503164   -1.7667034952   -2.1076141726
H       -1.8060870013   -4.3541086952   -1.6969348098
H        2.1078235627   -0.5524866806   -1.5016619774
22   
Generated by ForceBalance from scan.xyz: Frame 21 of 24
C        5.5280112395    1.4725000119    1.2828991472
C        5.6357822314    0.1653992033    1.7724548819
C        4.4711894398    1.8123768097    0.4325255198
C        4.6944831840   -0.7974409359    1.4099795962
C        3.5332024159    0.8462712357    0.0603178964
C       -1.3196524690   -2.2313749514   -1.9821713519
C       -1.1453659656   -3.5183279119   -1.5561027811
C        3.6428320574   -0.4688071437    0.5403902924
C        0.7524618487   -2.0375450629   -1.2581039239
C        2.6668021338   -1.5552466045    0.2091035825
N       -0.2440466003   -1.3868589376   -1.7994227155
N        1.9693394552   -1.4060432654   -0.9849371843
O        2.5254676568   -2.5512626278    0.9114347530
S        0.4463029128   -3.7152992015   -0.8816202434
H        6.2589054001    2.2243319653    1.5688831147
H        6.4522041642   -0.1002599488    2.4385631830
H        4.3719280850    2.8302831975    0.0657320597
H        4.7537302431   -1.8124429304    1.7897915407
H        2.7016869369    1.1471716921   -0.5722996443
H       -2.2280787766   -1.8385117664   -2.4253619578
H       -1.8552765171   -4.3350273028   -1.5630441863
H        2.0566672601   -0.5234512149   -1.4748484148
22   
Generated by ForceBalance from scan.xyz: Frame 22 of 24
C        5.5712859270    1.4638736172    1.2857837810
C        5.6855147727    0.1443648567    1.7391717653
C        4.4884968880    1.8326640589    0.4812385698
C        4.7248727501   -0.8028644445    1.3863677661
C        3.5303173641    0.8828967559    0.1190831239
C       -1.2787526486   -2.3082476316   -2.0849158290
C       -1.1436671486   -3.5293613688   -1.4874788643
C        3.6462844822   -0.4444670179    0.5628844107
C        0.7164922010   -2.0016052608   -1.2015802531
C        2.6527499762   -1.5149656988    0.2367435502
N       -0.2235904855   -1.4358065718   -1.9136734110
N        1.8958557727   -1.3200119654   -0.9069759446
O        2.5377194643   -2.5378355446    0.9081727313
S        0.3783768218   -3.6242774819   -0.6451074091
H        6.3177235401    2.2030633416    1.5644037373
H        6.5224710750   -0.1434042047    2.3696254378
H        4.3851124136    2.8598872957    0.1426438567
H        4.7893773891   -1.8276103921    1.7381615453
H        2.6802253117    1.2048557423   -0.4773807054
H       -2.1410743413   -1.9844373301   -2.6573216315
H       -1.8470939642   -4.3513687225   -1.4636506802
H        1.9764711578   -0.4441786482   -1.4094907901
22   
Generated by ForceBalance from scan.xyz: Frame 23 of 24
C        5.6247417630    1.4338362394    1.2670878147
C        5.7289689993    0.1027802389    1.6876294651
C        4.5192517027    1.8417519330    0.5137146068
C        4.7353265941   -0.8164981713    1.3523330170
C        3.5275398516    0.9201586909    0.1699525544
C       -1.2354424427   -2.3867345451   -2.1932680530
C       -1.1370164627   -3.5456059650   -1.4772775700
C        3.6327105100   -0.4188345942    0.5804678247
C        0.6591972971   -1.9509137290   -1.1544946339
C        2.6082280185   -1.4628436588    0.2670728908
N       -0.2151288659   -1.4773142843   -2.0050811123
N        1.7854150193   -1.2105818290   -0.8124942382
O        2.5116817810   -2.5103758304    0.9053415497
S        0.3025833186   -3.5317559741   -0.4941069797
H        6.3967813720    2.1516373651    1.5314572778
H        6.5834750441   -0.2157914060    2.2784957925
H        4.4247004360    2.8779240185    0.2007563815
H        4.7921422119   -1.8500595939    1.6786603860
H        2.6622155081    1.2721695914   -0.3861543848
H       -2.0420564820   -2.1382507904   -2.8743255091
H       -1.8197914473   -4.3849007057   -1.4544192245
H        1.8753506613   -0.3487049678   -1.3363716787
22   
Generated by ForceBalance from scan.xyz: Frame 24 of 24
C        5.6603714567    1.3992204276    1.2230338136
C        5.7581054955    0.0585697231    1.6135063357
C        4.5275487430    1.8432464029    0.5331855581
C        4.7305930106   -0.8347158621    1.3114012766
C        3.5013921577    0.9481000567    0.2224906122
C       -1.1756596819   -2.4528486865   -2.2996242849
C       -1.1409486500   -3.5542222789   -1.4927742539
C        3.5997148054   -0.4003369052    0.6029347751
C        0.5892572007   -1.9041054939   -1.0998155577
C        2.5418706198   -1.4180940069    0.3175456025
N       -0.1911972805   -1.5130627254   -2.0748222117
N        1.6555876337   -1.1110610029   -0.6940317489
O        2.4581455631   -2.4809405714    0.9326521947
S        0.1934410228   -3.4479052590   -0.3755003108
H        6.4590399034    2.0965930773    1.4617312864
H        6.6340292915   -0.2877899057    2.1553465254
H        4.4390270037    2.8869180272    0.2442741094
H        4.7824505204   -1.8753980915    1.6151879385
H        2.6163348673    1.3263276982   -0.2828331841
H       -1.9052374300   -2.2723407867   -3.0814942193
H       -1.8056346555   -4.4082265845   -1.4875540815
H        1.7796087729   -0.2789282865   -1.2576264739
