21

C     -0.87260    0.60414    2.11544
C      0.78838   -0.92516    1.28890
C      0.38402   -0.87746    3.54927
C     -0.17516    0.06135    1.02994
C     -0.58086    0.12148    3.38880
C     -0.38332    0.50157   -0.39310
C     -2.41947    0.17674   -2.90117
C     -1.98000    1.37652   -2.05690
N      1.05841   -1.39187    2.51308
N     -1.62017    1.01308   -0.68528
O      0.51883    0.41425   -1.22600
Br    -1.48485    0.83111    4.91956
H     -1.59682    1.40236    1.98500
H      1.35595   -1.34318    0.46167
H      0.62139   -1.26550    4.53737
H     -1.61129   -0.55619   -2.96839
H     -3.29972   -0.31183   -2.46861
H     -2.67625    0.50060   -3.91550
H     -2.77420    2.12787   -2.00296
H     -1.10246    1.84909   -2.50177
H     -2.37654    0.81461   -0.04322
