34

C     -0.07323   -2.92980  -12.94621
C      2.98461    1.35735   -3.33260
C      3.03805    2.45114   -4.21380
C      2.47578    0.12550   -3.74536
C      2.58064    2.33052   -5.52961
C      0.14218   -3.16259  -10.42902
C     -0.47811   -3.35111  -11.65584
C     -0.66558   -3.80422   -9.44154
C      2.01189   -0.01662   -5.06084
C      2.07226    1.09678   -5.93719
C     -1.76252   -4.36750  -10.11366
C      1.14040   -0.99551   -6.83371
C     -0.42013   -3.94252   -8.00379
C     -2.92458   -5.13998   -9.57765
C     -2.60416   -4.45543  -12.47857
N      0.24391   -2.58826  -14.01713
N      1.48173   -1.18271   -5.60154
N      0.17274   -3.13105   -7.19341
N     -1.64028   -4.08797  -11.44817
N      0.62215   -1.94163   -7.69543
S      1.42820    0.63685   -7.50976
H      3.34573    1.47328   -2.31422
H      3.43830    3.40187   -3.87276
H      2.43064   -0.72589   -3.07279
H      2.62240    3.17617   -6.21017
H      1.10209   -2.68424  -10.29086
H     -0.77653   -4.84986   -7.52002
H     -3.87747   -4.65694   -9.82257
H     -2.95660   -6.15817   -9.98296
H     -2.86309   -5.21157   -8.49111
H     -2.79185   -5.53165  -12.45402
H     -3.54841   -3.92248  -12.33171
H     -2.19986   -4.19191  -13.45566
H      0.22576   -1.59853   -8.56898
