35

C      6.78667   -2.04492    3.48947
C      7.98141   -7.68067    0.22701
C      0.68206   -1.57048   -1.35460
C      7.33369   -6.56808   -0.32502
C      8.46688   -7.62389    1.53760
C      0.38414   -0.27715   -0.91498
C      1.70890   -2.27972   -0.73766
C      7.14725   -5.41443    0.43195
C      8.30032   -6.46195    2.28981
C      1.11153    0.28396    0.13628
C      2.44811   -1.71361    0.31795
C      7.61391   -5.34971    1.76036
C      2.15100   -0.40825    0.77644
C      3.51493   -2.53460    0.91530
C      5.30348   -3.10867    1.87141
C      7.49439   -4.16390    2.60488
C      6.56341   -3.16797    2.61795
C      2.87793    0.25985    1.92121
N      6.98562   -1.14719    4.20510
N      4.63282   -2.03303    1.56113
N      3.49645   -3.85544    0.84715
O      4.68694   -4.24414    1.48712
H      8.11858   -8.58050   -0.36661
H      0.12378   -2.01926   -2.17155
H      6.97656   -6.60041   -1.35056
H      8.98255   -8.47804    1.96750
H     -0.41224    0.29281   -1.38678
H      1.95712   -3.28258   -1.07091
H      6.66358   -4.55593   -0.01933
H      8.68933   -6.41488    3.30427
H      0.86647    1.28677    0.47747
H      8.28925   -4.05062    3.33956
H      2.92678   -0.38316    2.80413
H      3.91172    0.49588    1.65746
H      2.36857    1.18627    2.19892
