34

C     -1.22073   -2.90538  -12.86678
C     -2.04315    1.78414   -2.99523
C     -2.09451    2.87252   -3.88322
C     -1.77896    0.49333   -3.45433
C     -1.88099    2.68708   -5.25259
C     -1.04546   -3.10181  -10.34345
C     -0.66785   -3.37550  -11.65034
C     -0.17768   -3.84418   -9.48610
C     -1.56191    0.28570   -4.82389
C     -1.61661    1.39449   -5.70644
C      0.70776   -4.55242  -10.31484
C     -1.13421   -0.80772   -6.68998
C     -0.19635   -3.94287   -8.02446
C      1.82866   -5.47476   -9.95852
C      1.11333   -4.77714  -12.78308
N     -1.66230   -2.52556  -13.87913
N     -1.28934   -0.94323   -5.41427
N     -0.53274   -3.05593   -7.14877
N      0.40605   -4.26001  -11.61769
N     -0.89690   -1.81808   -7.60050
S     -1.30843    0.84673   -7.35095
H     -2.21233    1.95101   -1.93482
H     -2.30207    3.86984   -3.50552
H     -1.73771   -0.35440   -2.77691
H     -1.92102    3.52864   -5.93830
H     -1.89581   -2.49615  -10.06170
H      0.11185   -4.88844   -7.58259
H      1.67437   -6.47872  -10.37069
H      2.78951   -5.10670  -10.33673
H      1.91618   -5.56448   -8.87512
H      2.16420   -4.47521  -12.75878
H      1.05399   -5.86851  -12.81177
H      0.65346   -4.37662  -13.68616
H     -0.60871   -1.53465   -8.53567
