23

C     -4.29526    4.36612    3.12555
C     -3.12478    3.84289    3.77696
C     -4.66247    5.58211    3.62071
C     -2.65145    4.68967    4.75336
C     -2.50622    2.53029    3.46128
C     -0.68505    1.21471    0.75788
C     -1.85669    0.89814    1.69737
C     -1.19525    2.28717   -0.19964
N     -2.44047    2.19110    2.09690
O     -2.11921    1.75047    4.31954
O     -3.52774    3.60367    0.15960
O     -1.47248    4.51143    1.34255
S     -3.59621    6.14391    4.88521
S     -2.24316    3.38111    0.82383
Cl    -6.01441    6.54161    3.13371
Cl    -1.25411    4.49750    5.74082
H     -4.82763    3.85849    2.33060
H      0.16169    1.59390    1.33670
H     -0.36097    0.32542    0.21121
H     -2.62045    0.29982    1.18832
H     -1.54086    0.38022    2.60168
H     -0.42424    2.92326   -0.63649
H     -1.84825    1.88735   -0.97788
