19   

C        1.7384420537   -1.2550412290   -0.1122797331
C        0.7594318307   -0.5075774118    0.5303299231
C        2.7566132967   -1.8501373487    0.6347322431
C        0.8073010735   -0.3576060303    1.9153937734
C        2.8280617124   -1.7222434619    2.0404848157
C        1.8262642399   -0.9506732063    2.6864757229
C        3.9374114945   -2.3782579180    2.7466363214
C        1.8205881269   -0.7129793504    4.1780480342
N        4.0768571493   -2.6267519047    4.0910981859
N        5.0301618460   -2.8515689983    2.1031537344
N        5.2770298055   -3.2535563019    4.2090870268
N        5.8283601196   -3.3841371482    3.0607115009
H        1.7153432787   -1.3773119295   -1.1884326675
H       -0.0339059424   -0.0418625269   -0.0418556981
H        3.5107556439   -2.4302255519    0.1154791249
H        0.0396936484    0.2333956345    2.3998319260
H        1.6340957687   -1.6524089269    4.7071424164
H        2.7825628830   -0.3020116462    4.4992559553
H        1.0397014031   -0.0015165197    4.4605779552
19   

C        1.7129375407   -1.2940504091   -0.1207867074
C        0.7450748111   -0.5273952526    0.5192876081
C        2.7303750442   -1.8896769035    0.6275689487
C        0.8041279234   -0.3562382987    1.9025891870
C        2.8048605819   -1.7452875433    2.0284876693
C        1.8220583411   -0.9504426122    2.6730367226
C        3.9194818294   -2.3869559898    2.7407815494
C        1.8515888122   -0.6869226706    4.1595308173
N        3.9559085759   -2.8265543281    4.0413762505
N        5.1183903895   -2.6198858990    2.1598426355
N        5.2106010592   -3.3260490240    4.1994006274
N        5.8819064767   -3.2075950449    3.1139400491
H        1.6822554540   -1.4285951439   -1.1952684394
H       -0.0467379136   -0.0606988676   -0.0541979421
H        3.4837829536   -2.4827233343    0.1216210050
H        0.0492485951    0.2523802202    2.3852102861
H        1.5998732438   -1.6006484633    4.7063001675
H        2.8469645835   -0.3497439365    4.4649110841
H        1.1321412861    0.0891075081    4.4351947398
19   

C        1.7018343971   -1.3117164042   -0.1259327436
C        0.7477904155   -0.5265566400    0.5158738033
C        2.7149296620   -1.9180839853    0.6206142898
C        0.8167249551   -0.3454997919    1.8986290445
C        2.7904109276   -1.7678567995    2.0176848014
C        1.8298562457   -0.9513841609    2.6651502867
C        3.9059646115   -2.4037067755    2.7384499902
C        1.8880639404   -0.6855885812    4.1499699761
N        3.8595510234   -3.0319565427    3.9574609366
N        5.1751592333   -2.4030973753    2.2762030273
N        5.1448365951   -3.4126226914    4.1879985198
N        5.9038012680   -3.0508678233    3.2191041917
H        1.6642329516   -1.4500067607   -1.1997019866
H       -0.0398453433   -0.0514253387   -0.0564300097
H        3.4660189048   -2.5214531687    0.1234471921
H        0.0758343614    0.2788182240    2.3828577523
H        1.6063229439   -1.5875490429    4.7015674930
H        2.9012673051   -0.3930999659    4.4430190711
H        1.2053194547    0.1210848038    4.4309542806
19   

C        2.0351236580   -0.7401681526   -0.1290701651
C        0.8618365371   -0.3414554469    0.5086925837
C        3.0419896394   -1.3722510266    0.6053525484
C        0.7042672586   -0.5687559044    1.8782660036
C        2.8906584990   -1.6312339081    1.9777833104
C        1.7084956498   -1.2058518280    2.6301188222
C        4.0016554027   -2.2597225452    2.7199436545
C        1.5218273790   -1.3995210421    4.1151247069
N        3.9284516626   -3.3778794869    3.5095857936
N        5.2484913278   -1.7466455279    2.7605333720
N        5.1890850392   -3.5175140228    4.0017986545
N        5.9503453495   -2.5783840730    3.5703876661
H        2.1711256453   -0.5573961254   -1.1881220521
H        0.0778405732    0.1508061124   -0.0540453418
H        3.9642011826   -1.6737417690    0.1220344240
H       -0.2069292100   -0.2420388173    2.3641817799
H        1.4039637926   -2.4637369315    4.3403836244
H        2.3936058628   -1.0199539360    4.6574389271
H        0.6355657180   -0.8675136408    4.4718894433
19   

C        2.0221876211   -0.7555439790   -0.1439809373
C        0.8571550157   -0.3442240475    0.5031949191
C        3.0361781225   -1.3821493609    0.5861168044
C        0.7126173047   -0.5554260628    1.8775284955
C        2.8974648847   -1.6165616502    1.9627401206
C        1.7241320840   -1.1859711032    2.6243539574
C        4.0014419009   -2.2501989891    2.7188404210
C        1.5569966167   -1.3824692356    4.1109952128
N        3.9850476289   -3.5049568633    3.2674381804
N        5.1577401764   -1.6256035124    3.0155042546
N        5.1913641979   -3.6052152612    3.8890184642
N        5.8677261070   -2.5234304646    3.7438177435
H        2.1449955518   -0.5878196360   -1.2071170676
H        0.0681204786    0.1430900659   -0.0568004455
H        3.9509610501   -1.6973027841    0.0979202446
H       -0.1932802971   -0.2234065855    2.3696999398
H        1.5105354031   -2.4509611735    4.3426969817
H        2.4068702469   -0.9457203657    4.6450094623
H        0.6400935600   -0.9066699378    4.4696800214
19   

C        2.0190236406   -0.7821085723   -0.1503747070
C        0.8616004848   -0.3513084935    0.4987480269
C        3.0362864766   -1.3995793861    0.5832681844
C        0.7250747602   -0.5389364412    1.8776323975
C        2.9114550334   -1.5936233301    1.9668733952
C        1.7406401997   -1.1585090924    2.6278390218
C        4.0006464738   -2.2497473894    2.7296371082
C        1.5774294664   -1.3534899512    4.1148718670
N        4.1205631833   -3.5935134703    2.9593414995
N        5.0230584174   -1.5822189202    3.2959847654
N        5.2605922078   -3.6960030684    3.6954743433
N        5.7815365601   -2.5381362488    3.8890091992
H        2.1316803137   -0.6397119657   -1.2183143559
H        0.0699054737    0.1279791700   -0.0644092328
H        3.9412335705   -1.7389558957    0.0931157266
H       -0.1783066124   -0.1998976113    2.3696316220
H        1.6283281188   -2.4191860415    4.3592032015
H        2.3792069957   -0.8344592286    4.6494399588
H        0.6167328843   -0.9613987884    4.4599610932
19   

C        2.0163712883   -0.8108401785   -0.1449796174
C        0.8673359173   -0.3530580387    0.4994143759
C        3.0318689977   -1.4191449296    0.5983519172
C        0.7356728010   -0.5102953985    1.8821654393
C        2.9214957066   -1.5676318704    1.9894390053
C        1.7504629420   -1.1195608555    2.6421232130
C        3.9981609506   -2.2489430616    2.7439291312
C        1.5785550896   -1.2985964545    4.1302988790
N        4.3251693736   -3.5743982722    2.6467154045
N        4.8598830434   -1.6116876866    3.5592653039
N        5.3993441519   -3.7055194963    3.4719407854
N        5.7085473541   -2.5752188130    3.9973242868
H        2.1227909826   -0.6998198850   -1.2172763391
H        0.0763302937    0.1186889055   -0.0710279928
H        3.9260882814   -1.7881769597    0.1095596968
H       -0.1651281652   -0.1578919721    2.3694874793
H        1.6973145814   -2.3535358476    4.3968843486
H        2.3342942931   -0.7155603145    4.6655919114
H        0.5879852088   -0.9674687242    4.4542087944
19   

C        2.0175070367   -0.8413083089   -0.1367630176
C        0.8753798341   -0.3520773179    0.4944407654
C        3.0183261566   -1.4550978457    0.6210968708
C        0.7357360182   -0.4860023741    1.8781323345
C        2.9062723215   -1.5765858363    2.0161713816
C        1.7362815276   -1.0996010505    2.6540212287
C        3.9688229597   -2.2750414679    2.7657164490
C        1.5354309897   -1.2620493036    4.1409850445
N        4.4900017208   -3.5007435718    2.4457733393
N        4.6573535591   -1.7310448502    3.7899223344
N        5.4855353449   -3.6818648452    3.3555809302
N        5.5829152396   -2.6625651625    4.1300398968
H        2.1299120685   -0.7518100001   -1.2104690207
H        0.0948998065    0.1237925443   -0.0869727280
H        3.9051183695   -1.8501788870    0.1386842396
H       -0.1623680756   -0.1125175020    2.3546381286
H        1.7153040384   -2.3009544896    4.4348351777
H        2.2334897758   -0.6175773871    4.6837941753
H        0.5158020521   -0.9934343320    4.4308160846
19   

C        2.0025707610   -0.8660270749   -0.1323674079
C        0.8738740121   -0.3555366343    0.5031942489
C        3.0008120429   -1.4860358672    0.6228235181
C        0.7458312842   -0.4750245538    1.8884451314
C        2.9027742339   -1.5971760763    2.0219132325
C        1.7436361935   -1.0946941457    2.6641849726
C        3.9744814546   -2.2924191061    2.7533898635
C        1.5306940320   -1.2423375348    4.1517187147
N        4.6643416292   -3.3832874591    2.2900901387
N        4.5039126765   -1.8806023832    3.9255309946
N        5.5928173161   -3.6244050159    3.2548026441
N        5.5011104801   -2.7587271173    4.1976010716
H        2.1076823364   -0.7875002041   -1.2076823242
H        0.0947195953    0.1255820976   -0.0756794405
H        3.8774688938   -1.8923320946    0.1310531547
H       -0.1438376219   -0.0850984144    2.3676372426
H        1.7380366026   -2.2704812065    4.4645309096
H        2.1985291473   -0.5655262522    4.6931170827
H        0.4990738416   -1.0043585786    4.4254466193
19   

C        1.9927541086   -0.8803942555   -0.1334588152
C        0.8745740883   -0.3541666628    0.5043404489
C        2.9882868951   -1.5052168143    0.6201945908
C        0.7558317282   -0.4622173411    1.8902884936
C        2.8998683855   -1.6129742853    2.0227449082
C        1.7500598044   -1.0878931681    2.6673893615
C        3.9847233421   -2.2993167802    2.7395063757
C        1.5247642372   -1.2126898745    4.1559626685
N        4.8246099762   -3.2320817546    2.1830944888
N        4.3631397251   -2.0580804643    4.0145574999
N        5.6888220894   -3.5494277776    3.1842028948
N        5.4233102017   -2.8728043810    4.2407263187
H        2.0933519384   -0.8090226152   -1.2097184045
H        0.0969188756    0.1315020093   -0.0727598291
H        3.8569668417   -1.9160041688    0.1182234872
H       -0.1268625424   -0.0574013360    2.3700609357
H        1.6891399207   -2.2450849528    4.4797200672
H        2.2115207133   -0.5532807362    4.6951988002
H        0.5012944097   -0.9350585268    4.4227857799
19   

C        1.9751748338   -0.9092800831   -0.1273219330
C        0.8636845823   -0.3743233640    0.5117936389
C        2.9736801182   -1.5284504985    0.6260393775
C        0.7566938376   -0.4661700668    1.8989347579
C        2.8958956685   -1.6285105727    2.0320643820
C        1.7533187832   -1.0870386955    2.6784127058
C        3.9953571539   -2.2994207211    2.7397823891
C        1.5301764063   -1.1696105574    4.1709820429
N        4.9751440699   -3.0481038687    2.1329050206
N        4.2340750000   -2.2555283306    4.0704810047
N        5.7819486224   -3.4490450142    3.1512460814
N        5.3548317347   -2.9920371338    4.2697954530
H        2.0695464953   -0.8480691133   -1.2047828700
H        0.0833292404    0.1079015584   -0.0645637447
H        3.8359975987   -1.9406249397    0.1146513942
H       -0.1205827797   -0.0495326904    2.3785227004
H        1.6103581291   -2.2070790364    4.5096074587
H        2.2692225517   -0.5571749364    4.6963504238
H        0.5349255819   -0.8061581375    4.4413099335
19   

C        1.9490653960   -0.9392299769   -0.1206442071
C        0.8401433287   -0.4037152084    0.5211323089
C        2.9563331099   -1.5452181468    0.6313393186
C        0.7468496373   -0.4782176698    1.9099013588
C        2.8896277786   -1.6356760368    2.0395685775
C        1.7523652063   -1.0857150915    2.6891941157
C        4.0006950205   -2.2926900077    2.7421174567
C        1.5537868102   -1.1137792381    4.1875480643
N        5.1070252452   -2.8291813347    2.1268050469
N        4.1128394592   -2.4722962588    4.0784265762
N        5.8625817431   -3.3241668361    3.1428340580
N        5.2891787705   -3.1184640666    4.2699204909
H        2.0350260153   -0.8885767334   -1.1993624413
H        0.0529186993    0.0687629525   -0.0539591477
H        3.8146631834   -1.9578497807    0.1138339450
H       -0.1260298120   -0.0545751337    2.3913616343
H        1.5254242226   -2.1473225421    4.5457396079
H        2.3655822203   -0.5758853277    4.6865221129
H        0.6119174677   -0.6355362852    4.4700802497
19   

C        1.9397291774   -0.9759628634   -0.1335139133
C        0.8298279128   -0.4379793136    0.5058232840
C        2.9529089146   -1.5676192822    0.6223610968
C        0.7431597931   -0.4916918659    1.8963802855
C        2.8879203361   -1.6436113369    2.0305377487
C        1.7547527206   -1.0844898192    2.6784273693
C        4.0035603975   -2.2841938382    2.7410324163
C        1.5877686712   -1.0618280807    4.1804203723
N        5.2141962794   -2.6012214758    2.1730064130
N        4.0017280163   -2.6898776219    4.0314136977
N        5.9202590652   -3.1903402775    3.1745676450
N        5.2211477627   -3.2418017923    4.2474333503
H        2.0217087101   -0.9380213567   -1.2130574975
H        0.0384617397    0.0236016950   -0.0724206651
H        3.8127860707   -1.9844141884    0.1106087434
H       -0.1263947807   -0.0605667550    2.3772249673
H        1.4549220363   -2.0795937991    4.5596093815
H        2.4648991133   -0.6090688417    4.6527415432
H        0.7120151018   -0.4748980632    4.4707098791
19   

C        1.9090915523   -1.0029488532   -0.1125711619
C        0.8082647588   -0.4509584736    0.5335650716
C        2.9278874776   -1.5921168863    0.6387086618
C        0.7366043743   -0.4855532530    1.9265008302
C        2.8717613131   -1.6541421603    2.0457227526
C        1.7538471665   -1.0763453883    2.7011190506
C        3.9940132613   -2.2776808864    2.7619233294
C        1.6297405628   -1.0282858491    4.2059243081
N        5.2713319673   -2.3887778801    2.2706952317
N        3.9187161950   -2.8978611801    3.9607069138
N        5.9471557580   -3.0694217443    3.2349153930
N        5.1677585676   -3.3633120086    4.2099156249
H        1.9798370397   -0.9761962621   -1.1932317234
H        0.0136623276    0.0090271231   -0.0414898341
H        3.7852115920   -2.0187879456    0.1305042740
H       -0.1220249216   -0.0408618159    2.4145679006
H        1.4306186879   -2.0304229434    4.5974563105
H        2.5533202317   -0.6454587905    4.6510358025
H        0.8108685243   -0.3711961685    4.5116078760
19   

C        1.9022675693   -1.0184998106   -0.1187446389
C        0.8082541486   -0.4504654118    0.5285269427
C        2.9191408819   -1.6121579676    0.6327588280
C        0.7410877751   -0.4719041154    1.9230179134
C        2.8608232298   -1.6648955661    2.0374840594
C        1.7560233698   -1.0682433815    2.6948031379
C        3.9825596008   -2.2750299477    2.7698264874
C        1.6579628945   -1.0183133591    4.2007196796
N        5.3014610062   -2.1880987635    2.4044584933
N        3.8556228128   -3.0999417212    3.8315526837
N        5.9514449471   -2.9592033657    3.3175824048
N        5.1188726583   -3.4851778440    4.1402928423
H        1.9693741389   -0.9988422116   -1.1997749260
H        0.0161697757    0.0129695209   -0.0472186255
H        3.7768489600   -2.0482495329    0.1331558830
H       -0.1094295771   -0.0143702374    2.4133870060
H        1.4310306748   -2.0142339968    4.5929388352
H        2.6036226440   -0.6745666559    4.6314018125
H        0.8688370796   -0.3316782196    4.5194904667
19   

C        1.8963104809   -1.0356747172   -0.1187592560
C        0.8151779822   -0.4424167973    0.5304090730
C        2.9077494252   -1.6406419544    0.6320697871
C        0.7545543797   -0.4496901991    1.9262252986
C        2.8512657270   -1.6791376454    2.0352382057
C        1.7644236525   -1.0571433436    2.6948285437
C        3.9675159454   -2.2887608050    2.7842942818
C        1.6866159021   -1.0128059221    4.2014027179
N        5.2953449434   -2.0127009886    2.5919294315
N        3.8267416922   -3.2988994247    3.6668802680
N        5.9342250125   -2.8689926191    3.4346871517
N        5.0888838885   -3.6106657993    4.0540052379
H        1.9575472571   -1.0256274727   -1.2002573935
H        0.0280650257    0.0294998910   -0.0452563589
H        3.7592571458   -2.0941920200    0.1376632762
H       -0.0849052519    0.0256797246    2.4186398108
H        1.4991719798   -2.0166341681    4.5944254393
H        2.6291040176   -0.6429675177    4.6172955331
H        0.8807201279   -0.3523979362    4.5333579937
19   

C        1.8704605594   -1.0546426023   -0.1293046031
C        0.8092872232   -0.4414294272    0.5362563381
C        2.8870048984   -1.6701148333    0.6066597230
C        0.7716086761   -0.4409004055    1.9336251942
C        2.8533038840   -1.6931356259    2.0094025463
C        1.7874170653   -1.0575900166    2.6861989474
C        3.9635459484   -2.3212377786    2.7613959464
C        1.7382438777   -1.0266825605    4.1938129500
N        5.2507584236   -1.8596218968    2.8180610148
N        3.8569347220   -3.4949659592    3.4128803299
N        5.8984915914   -2.7939876838    3.5660208893
N        5.0965192680   -3.7367921421    3.9083289085
H        1.9111251839   -1.0527085650   -1.2118078898
H        0.0186041648    0.0379108492   -0.0282726929
H        3.7225636575   -2.1421928457    0.1029588547
H       -0.0537101832    0.0458542569    2.4386319728
H        1.6372747055   -2.0439778616    4.5843598625
H        2.6605353305   -0.5900795192    4.5898236943
H        0.8918992016   -0.4312886760    4.5473645072
19   

C        1.8482178620   -1.0720759961   -0.1390923873
C        0.8045628546   -0.4377976933    0.5354729190
C        2.8740286378   -1.6827018998    0.5883561850
C        0.7898098185   -0.4160937979    1.9334916460
C        2.8707783298   -1.6678791825    1.9909939390
C        1.8153108104   -1.0264682970    2.6776962954
C        3.9666648118   -2.3211818288    2.7465600194
C        1.7844162866   -0.9938501388    4.1856395757
N        5.1318352323   -1.7238200204    3.1445448476
N        3.9413501959   -3.6094885617    3.1355332295
N        5.7986987318   -2.7156630340    3.7953891381
N        5.1141467121   -3.8023299727    3.7898292846
H        1.8659194046   -1.0930276454   -1.2220100308
H        0.0067259591    0.0370229851   -0.0227802078
H        3.6909462007   -2.1796559372    0.0784171381
H       -0.0260809398    0.0795017715    2.4451711992
H        1.7628745963   -2.0144282402    4.5805587309
H        2.6792123320   -0.4914279225    4.5663058847
H        0.9023004629   -0.4598446339    4.5496036948
19   

C        1.8273475092   -1.0902459229   -0.1360750850
C        0.7957997980   -0.4386858898    0.5397304609
C        2.8592003933   -1.6925847902    0.5894060697
C        0.7965116948   -0.3966445126    1.9370608055
C        2.8822410815   -1.6431000673    1.9916497692
C        1.8291141332   -0.9971011061    2.6798095479
C        3.9681802901   -2.3195676378    2.7367815640
C        1.7974202147   -0.9600217002    4.1878764757
N        4.9622057955   -1.7022724488    3.4484600439
N        4.0708075598   -3.6576991052    2.8548130915
N        5.6715667133   -2.7342688866    3.9808247359
N        5.1592158286   -3.8609274076    3.6388321771
H        1.8292914171   -1.1342043210   -1.2184500289
H       -0.0074482310    0.0290428606   -0.0167474715
H        3.6613444495   -2.2111800962    0.0774407160
H       -0.0149401670    0.1049330059    2.4499798282
H        1.8703196792   -1.9756077175    4.5897198871
H        2.6416415973   -0.3740588365    4.5639837851
H        0.8695630001   -0.5090888888    4.5504949823
19   

C        1.8159269354   -1.1052480971   -0.1279673178
C        0.7917547948   -0.4378133431    0.5412708778
C        2.8469705878   -1.7016494112    0.6027870970
C        0.7987715428   -0.3770216022    1.9371161885
C        2.8835714748   -1.6292174262    2.0052937515
C        1.8315385312   -0.9706701225    2.6858215172
C        3.9687841710   -2.3149232206    2.7343806191
C        1.7861101122   -0.9205072288    4.1934921346
N        4.8011306998   -1.7586530080    3.6708811131
N        4.2317044670   -3.6320631096    2.6076443522
N        5.5817075926   -2.7962893654    4.0770244062
N        5.2546201136   -3.8758808311    3.4646251322
H        1.8125782439   -1.1677809853   -1.2094331804
H       -0.0118146403    0.0252290051   -0.0186545462
H        3.6408062237   -2.2352567072    0.0928353483
H       -0.0100887850    0.1333516910    2.4454581524
H        1.9299208580   -1.9228633498    4.6091803157
H        2.5799934500   -0.2675577447    4.5684928039
H        0.8239602862   -0.5372149005    4.5444003057
19   

C        1.8115600061   -1.1220722796   -0.1177542683
C        0.7970169759   -0.4336636780    0.5421012194
C        2.8336650742   -1.7232023452    0.6206990285
C        0.8056140903   -0.3571096854    1.9362439569
C        2.8746337864   -1.6393703907    2.0247449221
C        1.8294205531   -0.9554532675    2.6944537541
C        3.9599924878   -2.3277345958    2.7434725150
C        1.7671405193   -0.8845849434    4.2010434858
N        4.6510348090   -1.8762608299    3.8395696975
N        4.3910727088   -3.5643991358    2.4127319845
N        5.5133503267   -2.8866435087    4.1321142788
N        5.3644302556   -3.8599793221    3.3098409668
H        1.8087924210   -1.1969839223   -1.1984480398
H       -0.0001398239    0.0335443440   -0.0235027899
H        3.6197032191   -2.2692883213    0.1114845418
H        0.0028135683    0.1701043815    2.4369687058
H        1.9144263095   -1.8792313783    4.6334712749
H        2.5484327877   -0.2163690283    4.5755286359
H        0.7970364342   -0.5071047458    4.5360393264
19   

C        1.8008121994   -1.1430730741   -0.1135878024
C        0.7982317671   -0.4343595884    0.5396753352
C        2.8149769451   -1.7510607788    0.6292617926
C        0.8127669078   -0.3431516973    1.9317024966
C        2.8618877488   -1.6617753798    2.0359765664
C        1.8281938520   -0.9488275322    2.6964931493
C        3.9514987207   -2.3480409588    2.7456013570
C        1.7580302539   -0.8482805716    4.2014574208
N        4.5098277787   -2.0275471512    3.9587107165
N        4.5575342931   -3.4537549456    2.2563246309
N        5.4619607421   -2.9772192703    4.1594643151
N        5.4904297355   -3.8003373691    3.1773273705
H        1.7967794307   -1.2272939108   -1.1936086383
H        0.0070288270    0.0389941971   -0.0291776756
H        3.5911288230   -2.3052202448    0.1136990377
H        0.0192398015    0.2032782660    2.4265878596
H        1.8565562515   -1.8405709938    4.6524324154
H        2.5627101165   -0.2056494479    4.5712147327
H        0.8027892895   -0.4238259415    4.5226549148
19   

C        1.7851215212   -1.1874483341   -0.1204028284
C        0.7952334708   -0.4554598545    0.5233214860
C        2.7929168436   -1.7972298189    0.6288528595
C        0.8181686374   -0.3410827949    1.9123846270
C        2.8473026993   -1.6936119805    2.0374209285
C        1.8268858853   -0.9486340175    2.6856255524
C        3.9413727971   -2.3720542649    2.7462663155
C        1.7602337467   -0.7999967275    4.1871971091
N        4.3618243442   -2.2061839678    4.0441019302
N        4.7209919248   -3.3071917447    2.1543707971
N        5.4021291960   -3.0688869629    4.1883441879
N        5.6104839972   -3.7051975434    3.0967460989
H        1.7779145068   -1.2872296261   -1.1990965069
H        0.0091451307    0.0204404038   -0.0504863418
H        3.5567953197   -2.3632137297    0.1082722280
H        0.0355280464    0.2281292055    2.3988588653
H        1.7762108904   -1.7839583722    4.6657651752
H        2.6102794889   -0.2106965344    4.5441243137
H        0.8410157922   -0.2923604958    4.4923727898
19   

C        1.7690019823   -1.2234258820   -0.1251564320
C        0.7811884703   -0.4865484235    0.5147002887
C        2.7815466942   -1.8227623404    0.6257991666
C        0.8131257311   -0.3543156519    1.9014723613
C        2.8426805552   -1.7077621576    2.0346118930
C        1.8264778898   -0.9514359991    2.6772974018
C        3.9456562309   -2.3727523235    2.7424947441
C        1.7803580107   -0.7543787452    4.1742560539
N        4.2170642874   -2.4062428819    4.0896770973
N        4.8977458642   -3.0862967864    2.0958680308
N        5.3456891519   -3.1542510947    4.2048852043
N        5.7398683737   -3.5478279780    3.0524418030
H        1.7571036751   -1.3348707306   -1.2026727959
H       -0.0083634251   -0.0180441334   -0.0604439690
H        3.5406506647   -2.3925026690    0.1026114505
H        0.0347202420    0.2239463969    2.3840470913
H        1.6934641478   -1.7212423310    4.6791663261
H        2.6876076809   -0.2468291868    4.5157220097
H        0.9217192237   -0.1431235531    4.4655775659
