18   

C        4.6331489483    1.3459722794    0.7538182826
C        5.8139907151    1.1162717331    0.0578438686
C        3.5008874128    0.5758692131    0.4819786556
C        5.8525191701    0.1176164151   -0.9129832077
C        3.5148812075   -0.4449182471   -0.4880718959
C        4.7243040807   -0.6614946876   -1.1988640765
C        2.2836726517   -1.2595635898   -0.7409971179
C        0.9255131978   -0.7892421881   -0.2311503944
O        2.3102354744   -2.3131859061   -1.3628699842
O        4.8394502583   -1.6001087533   -2.1827804257
H        4.5933087854    2.1217186366    1.5103739034
H        6.6964253849    1.7112888199    0.2677201625
H        2.6063407945    0.7855760616    1.0569106867
H        6.7762154267   -0.0470308181   -1.4536463433
H        0.7670970572    0.2586430519   -0.4992965830
H        0.8758647534   -0.9036685810    0.8547636491
H        0.1296915145   -1.3874176146   -0.6844091909
H        5.7506973727   -1.6457513189   -2.5119244347
18   

C        4.6560720269    1.3455002858    0.7980864717
C        5.8087066910    1.1619621847    0.0407735190
C        3.5350944513    0.5453601376    0.5677991315
C        5.8294911760    0.1814568188   -0.9507643181
C        3.5390812337   -0.4554416673   -0.4197620245
C        4.7108292063   -0.6248425284   -1.1941939029
C        2.3294741382   -1.3189268933   -0.6179731070
C        0.9406437367   -0.7750286619   -0.3057238766
O        2.4123600260   -2.4711546229   -1.0185709282
O        4.7846255896   -1.5399451047   -2.2039743716
H        4.6309738373    2.1060787080    1.5704842523
H        6.6827895102    1.7791406450    0.2191880034
H        2.6587921130    0.7057303883    1.1858787773
H        6.7286194992    0.0543169621   -1.5406948845
H        0.8585709288    0.2596011608   -0.6492616543
H        0.7583993812   -0.8184454202    0.7710680267
H        0.1829331083   -1.3739969507   -0.8189721569
H        5.6888866976   -1.5978302643   -2.5507691499
18   

C        4.7236058563    1.2900806949    0.8579608741
C        5.8289614497    1.1404001199    0.0240818317
C        3.5968832321    0.4855203685    0.6732469358
C        5.7968165043    0.1891054990   -0.9967348306
C        3.5526894013   -0.4797736068   -0.3443829146
C        4.6707240304   -0.6193332574   -1.1921515531
C        2.3474367075   -1.3659700565   -0.4960315700
C        0.9502040363   -0.7750504353   -0.3656893806
O        2.4567350047   -2.5681761037   -0.6810882383
O        4.6741181835   -1.5111448440   -2.2252947475
H        4.7408016354    2.0260547245    1.6540196639
H        6.7074982579    1.7604686385    0.1669971195
H        2.7546132527    0.6093642112    1.3450198013
H        6.6581161437    0.0867103354   -1.6450196333
H        0.8937596222    0.1644799441   -0.9218804938
H        0.7197862198   -0.5888421736    0.6860968916
H        0.2119787143   -1.4706907829   -0.7747282828
H        5.5609874432   -1.5831980881   -2.6129039042
18   

C        4.7769616141    1.2316690117    0.9525418371
C        5.8308166513    1.1371716849    0.0451625841
C        3.6523811039    0.4162228940    0.8024124374
C        5.7505627762    0.2283878805   -1.0123179354
C        3.5638512259   -0.4991184923   -0.2538192506
C        4.6258029035   -0.5893716196   -1.1706774996
C        2.3643005783   -1.4049516050   -0.3769963154
C        0.9631906376   -0.8087623524   -0.4041808454
O        2.4840695210   -2.6188476484   -0.3551165292
O        4.5692325955   -1.4487952806   -2.2294476284
H        4.8335868372    1.9317160614    1.7785918645
H        6.7073852054    1.7655605154    0.1612313505
H        2.8511565480    0.4895706528    1.5296132322
H        6.5719454721    0.1659713384   -1.7151801272
H        0.7939802524   -0.3288139499   -1.3717157842
H        0.8460020746   -0.0657388702    0.3877126165
H        0.2178472136   -1.5966132126   -0.2633199195
H        5.4326238859   -1.5044312014   -2.6700833757
18   

C        4.8386257056    1.1837746141    1.0318077284
C        5.8391248039    1.1234480109    0.0622275926
C        3.7104653072    0.3667376636    0.9204153735
C        5.7020285501    0.2466483396   -1.0169377642
C        3.5680907327   -0.5143591444   -0.1557819405
C        4.5729332548   -0.5718901882   -1.1338144085
C        2.3581691156   -1.4159331338   -0.2556184048
C        0.9906648425   -0.8060595239   -0.5242992454
O        2.4380934431   -2.6069932263   -0.0090216900
O        4.4535330919   -1.4055747812   -2.2079335821
H        4.9388035081    1.8590087059    1.8741959517
H        6.7180228242    1.7535686980    0.1470482778
H        2.9441390856    0.4108631750    1.6870672411
H        6.4818006987    0.2098620178   -1.7673926244
H        0.9020938820   -0.5743593042   -1.5889993810
H        0.8687361510    0.1145003734    0.0517290624
H        0.2026521447   -1.5106229019   -0.2442679383
H        5.2844427891   -1.4338336044   -2.7101019870
18   

C        4.9142367088    1.1369593432    1.1193396017
C        5.8512057518    1.1056344045    0.0868139486
C        3.7790521339    0.3245279131    1.0545416343
C        5.6429454302    0.2631489882   -1.0082885051
C        3.5701342767   -0.5278990587   -0.0328433599
C        4.5065762709   -0.5506182434   -1.0771576620
C        2.3326806703   -1.3957109205   -0.1114142168
C        1.0784387230   -0.8460174202   -0.7723224338
O        2.3184521221   -2.5209620057    0.3569035494
O        4.3134659722   -1.3497972361   -2.1669313478
H        5.0674404135    1.7880054749    1.9727147684
H        6.7346539008    1.7333022885    0.1344140357
H        3.0568449994    0.3492429869    1.8638800137
H        6.3722999593    0.2506649168   -1.8085870831
H        1.2780011141   -0.6567847739   -1.8303912923
H        0.7866776227    0.0903323124   -0.2900626219
H        0.2598389105   -1.5659190949   -0.6856060443
H        5.1000017119   -1.3407320086   -2.7372606660
18   

C        4.9701236542    1.0775134823    1.1664757285
C        5.8557071761    1.0796484023    0.0891756746
C        3.8243295764    0.2788919426    1.1243309099
C        5.5867960930    0.2831554491   -1.0270885146
C        3.5543983572   -0.5279086104    0.0145702431
C        4.4399970745   -0.5176554606   -1.0743653027
C        2.2910481144   -1.3567723676   -0.0306313630
C        1.1372969454   -0.9255123714   -0.9244365156
O        2.1822206524   -2.3746476185    0.6332516641
O        4.1962937515   -1.2792285793   -2.1808201233
H        5.1704860881    1.6926067545    2.0365915413
H        6.7469361290    1.6973335365    0.1191520424
H        3.1399478052    0.2782804721    1.9664977558
H        6.2787043331    0.2955179380   -1.8599787507
H        1.4640934566   -0.9008015490   -1.9669947959
H        0.8001106762    0.0722179478   -0.6322968807
H        0.3044945365   -1.6277955306   -0.8292803581
H        4.9509529255   -1.2383921787   -2.7917704915
18   

C        5.0275438800    1.0331201828    1.1988496033
C        5.8693796828    1.0699347992    0.0873066029
C        3.8679040532    0.2546136141    1.1683375815
C        5.5444625605    0.3277479732   -1.0519108308
C        3.5428392847   -0.4978245275    0.0325380724
C        4.3838304186   -0.4537561403   -1.0906134652
C        2.2553888184   -1.2841796603    0.0325155930
C        1.1591130276   -0.9687913485   -0.9756946807
O        2.0621335897   -2.1526924064    0.8700791312
O        4.0927668407   -1.1675912486   -2.2168892679
H        5.2720953231    1.6059342208    2.0863599356
H        6.7711739227    1.6724443104    0.1090975448
H        3.2161624326    0.2267322377    2.0359150389
H        6.2053684280    0.3665631619   -1.9088115002
H        1.4157841406   -1.3922635940   -1.9496847805
H        1.0486531236    0.1141994229   -1.0734579478
H        0.2091335718   -1.3948462506   -0.6416951815
H        4.8195654650   -1.0957416210   -2.8582406695
18   

C        5.0238361514    0.8999921372    1.2659797102
C        5.8416193548    0.9702155422    0.1386765283
C        3.8345499052    0.1689903836    1.2190311664
C        5.4646538842    0.3073214812   -1.0328082353
C        3.4536816969   -0.5034781805    0.0479737210
C        4.2747115230   -0.4279477882   -1.0907944072
C        2.1348636819   -1.2265628262    0.0548249545
C        1.1353180576   -1.0626736765   -1.0823056675
O        1.8274942007   -1.9241431991    1.0129604984
O        3.9434472518   -1.0671394197   -2.2504000228
H        5.3089641178    1.4111590759    2.1786758745
H        6.7657754965    1.5371831060    0.1735388981
H        3.2018535108    0.1189402169    2.0999340743
H        6.1098012350    0.3710750635   -1.9001602035
H        1.3051685436   -1.8365744127   -1.8352861727
H        1.2542596715   -0.0793811856   -1.5448703238
H        0.1156783178   -1.1523491401   -0.6980624910
H        4.6519625558   -0.9606613535   -2.9073074285
18   

C        5.0770858989    0.8538708081    1.2798328246
C        5.8709490365    0.9418145098    0.1379458906
C        3.8596999682    0.1714424311    1.2314795050
C        5.4437161168    0.3423582637   -1.0495379861
C        3.4201689122   -0.4326382186    0.0407205300
C        4.2257619861   -0.3456370549   -1.1122392519
C        2.0824425880   -1.1168180306    0.0737127527
C        1.1450248437   -1.1282069364   -1.1274520275
O        1.6868705618   -1.6163858788    1.1214236485
O        3.8643381017   -0.9313093042   -2.2907166449
H        5.4021335413    1.3140637239    2.2062139130
H        6.8168006873    1.4716842542    0.1745174587
H        3.2517159272    0.1132797370    2.1292577687
H        6.0745881750    0.4160726050   -1.9265514085
H        1.3817880748   -1.9792815679   -1.7712182646
H        1.2539718258   -0.2015535614   -1.6969046902
H        0.1083069440   -1.2131502304   -0.7905182483
H        4.5637840488   -0.8096118695   -2.9547053201
18   

C        5.0830098155    0.7998025807    1.3193374543
C        5.8609611322    0.8893164405    0.1682669437
C        3.8307047940    0.1846207058    1.2692036549
C        5.3831668782    0.3571649940   -1.0306945508
C        3.3329246644   -0.3496816010    0.0655402595
C        4.1299665840   -0.2644105480   -1.0982631067
C        1.9669680649   -0.9783938683    0.1183463243
C        1.1066665133   -1.2078730708   -1.1190034349
O        1.4736853313   -1.2520117208    1.2086311714
O        3.7350379828   -0.7845955672   -2.2960990294
H        5.4471614717    1.2072293933    2.2558396043
H        6.8338619587    1.3675769353    0.2066520272
H        3.2452422694    0.1312730896    2.1820301345
H        6.0042437300    0.4300996988   -1.9147457784
H        1.4613436070   -2.0904138309   -1.6576420876
H        1.1513420267   -0.3346742226   -1.7748360340
H        0.0656043488   -1.3687664697   -0.8255543165
H        4.4289761974   -0.6537207652   -2.9640896837
18   

C        5.1368197548    0.7417163125    1.3248051830
C        5.9095594381    0.8403128245    0.1720257101
C        3.8570325086    0.1876727448    1.2623507863
C        5.3966424903    0.3825852456   -1.0421945173
C        3.3234184494   -0.2794076574    0.0452144916
C        4.1148238302   -0.1761445404   -1.1239601957
C        1.9337491216   -0.8573044862    0.0966843421
C        1.2005330505   -1.4089624791   -1.1209809845
O        1.3396025054   -0.8958518344    1.1707119722
O        3.6851390538   -0.6003468618   -2.3470149067
H        5.5263533488    1.0945460239    2.2731866213
H        6.9041072836    1.2707884441    0.2201115252
H        3.2829163728    0.1269120739    2.1818019850
H        6.0121750389    0.4673545792   -1.9290721807
H        1.7624868649   -2.2430101122   -1.5489830796
H        1.0763611326   -0.6226346633   -1.8699042164
H        0.2104203519   -1.7704837695   -0.8294345423
H        4.3713632929   -0.4426378361   -3.0171390384
18   

C        5.1399417151    0.6652486382    1.3459473847
C        5.9096647813    0.7742043861    0.1910281777
C        3.8354123420    0.1734434769    1.2713793555
C        5.3676157635    0.3938528674   -1.0379942460
C        3.2784060294   -0.2209447857    0.0400085805
C        4.0604104991   -0.1001400360   -1.1308297724
C        1.8700857630   -0.7495810726    0.0729884152
C        1.2736310097   -1.6023569524   -1.0409367653
O        1.1817370469   -0.5623994570    1.0720154821
O        3.5850170660   -0.4302229559   -2.3663127568
H        5.5512228145    0.9613322898    2.3044992289
H        6.9234472698    1.1558849166    0.2485399827
H        3.2594732058    0.0975902937    2.1886606292
H        5.9783432585    0.4912400652   -1.9268869082
H        2.0021428546   -2.3446658261   -1.3768482740
H        0.9848882776   -0.9648485174   -1.8805892349
H        0.3865907689   -2.1271237827   -0.6754386145
H        4.2577060429   -0.2491428424   -3.0442430657
18   

C        4.6333768086    1.9329423998    0.1016786626
C        5.7639059229    1.1271494251   -0.0185697182
C        3.3673870202    1.3994544985   -0.1487914753
C        5.6227471448   -0.2114806153   -0.3929186392
C        3.2150583195    0.0531707736   -0.5233993714
C        4.3596343184   -0.7594388677   -0.6478088028
C        1.8128965991   -0.4423375250   -0.7404684171
C        1.3901683338   -1.8645638036   -0.3936952589
O        0.9522594038    0.3377799710   -1.1334834336
O        4.2780505907   -2.0667811105   -1.0307558512
H        4.7339946787    2.9734952053    0.3893265256
H        6.7477675980    1.5406581435    0.1757534574
H        2.4961276657    2.0397654485   -0.0490806177
H        6.5116931791   -0.8227483643   -0.4862599641
H        1.9515962180   -2.2216958326    0.4735345930
H        1.5804915970   -2.5231804291   -1.2450594451
H        0.3233530038   -1.8887812328   -0.1552789516
H        5.1679977117   -2.4495711790   -1.1106414329
18   

C        4.6038665132    1.9101860154    0.1632564716
C        5.7455798881    1.1228543499    0.0179767110
C        3.3485204632    1.3794519201   -0.1423504704
C        5.6254972812   -0.1946666325   -0.4332675967
C        3.2220406354    0.0596335647   -0.6014095864
C        4.3721697967   -0.7365978238   -0.7421820896
C        1.8346911296   -0.4603524828   -0.8603795496
C        1.3845613983   -1.8153210768   -0.3307934739
O        1.0270533710    0.2333182828   -1.4650992017
O        4.2955817475   -2.0249552785   -1.1863184971
H        4.6882541869    2.9331521970    0.5125741669
H        6.7213269798    1.5335920491    0.2545024101
H        2.4634031288    1.9974366746   -0.0263277896
H        6.5209616315   -0.7939294997   -0.5410021889
H        1.9340127746   -2.0605328149    0.5818685605
H        1.5752749243   -2.5855254035   -1.0825679832
H        0.3151880591   -1.7905128196   -0.1045752372
H        5.1867920762   -2.4005922976   -1.2837859623
18   

C        4.5677681970    1.8358735302    0.2279250848
C        5.7211097713    1.0771152430    0.0291873416
C        3.3209929032    1.3122003974   -0.1228594898
C        5.6201359943   -0.2049571064   -0.5187118160
C        3.2153089642    0.0315659743   -0.6802449048
C        4.3744688098   -0.7369888304   -0.8717092080
C        1.8424448056   -0.5069535345   -0.9982155475
C        1.3227359928   -1.7549967550   -0.2980266374
O        1.1161397421    0.0785887642   -1.7873617398
O        4.3077430042   -1.9915240578   -1.4050437609
H        4.6371519677    2.8311649111    0.6523985914
H        6.6905323536    1.4820474046    0.2993331871
H        2.4257928475    1.9064027907    0.0313098697
H        6.5229384431   -0.7844250153   -0.6661798978
H        1.5658836075   -1.7084865602    0.7665507643
H        1.7834344551   -2.6454578956   -0.7323376560
H        0.2375703215   -1.8244698100   -0.4126314400
H        5.2019927250   -2.3428406183   -1.5520979302
18   

C        4.6407452417    1.8267864444    0.3526210403
C        5.8060269484    1.0973516730    0.1184313489
C        3.4030623344    1.3038490689   -0.0309010369
C        5.7247281441   -0.1547729454   -0.4966322399
C        3.3155562498    0.0559228380   -0.6556509592
C        4.4872822595   -0.6831422912   -0.8816550671
C        1.9654372511   -0.5117718287   -1.0299057302
C        1.3704530650   -1.6467050910   -0.2089598954
O        1.3447822698   -0.0803508760   -1.9876716388
O        4.4351908913   -1.9127835546   -1.4723312339
H        4.6941747802    2.7990209528    0.8295825480
H        6.7687041255    1.5009335411    0.4135538127
H        2.4994924013    1.8767641949    0.1506254719
H        6.6351820135   -0.7148090383   -0.6699238117
H        1.2538520048   -1.3262850218    0.8294239681
H        2.0321276780   -2.5158532225   -0.2421390747
H        0.3926800724   -1.9285707191   -0.6093693184
H        5.3327485551   -2.2407704919   -1.6491176139
18   

C        4.6248892658    1.7745558946    0.4295401511
C        5.8108742193    1.0983048455    0.1447063720
C        3.4005361016    1.2315423130    0.0308123680
C        5.7631400333   -0.1218561876   -0.5345105029
C        3.3466797739    0.0168816565   -0.6579505931
C        4.5387636057   -0.6692658390   -0.9339328846
C        2.0198763456   -0.5797356977   -1.0753633099
C        1.2887907427   -1.5108249675   -0.1210729531
O        1.5206570610   -0.3175839679   -2.1559872953
O        4.5151575506   -1.8730340397   -1.5773386376
H        4.6524069241    2.7216789001    0.9565906965
H        6.7633749388    1.5175501825    0.4507926421
H        2.4818685306    1.7654946995    0.2502824261
H        6.6885636002   -0.6432196464   -0.7451353768
H        1.1277891218   -1.0074189700    0.8355403890
H        1.8905389760   -2.4085650715    0.0435629722
H        0.3221840381   -1.8001821182   -0.5427712150
H        5.4178808538   -2.1576901118   -1.7965586082
18   

C        4.6013856052    1.6757170893    0.5019552411
C        5.8138783998    1.0740239003    0.1664640683
C        3.3982152900    1.0905254321    0.0986739630
C        5.8143188617   -0.1140580653   -0.5688154745
C        3.3916856427   -0.0971020480   -0.6391016682
C        4.6117914230   -0.7049138142   -0.9729665863
C        2.0871838922   -0.7101778706   -1.0964170613
C        1.1356210550   -1.2997714123   -0.0663161363
O        1.7301550443   -0.6361832941   -2.2595425139
O        4.6386701984   -1.8760919895   -1.6734221175
H        4.5922986062    2.5995606221    1.0694277394
H        6.7500530341    1.5271056269    0.4746884816
H        2.4605692347    1.5735496920    0.3525744588
H        6.7604453748   -0.5765523166   -0.8208547310
H        1.0916666285   -0.6580174657    0.8170438955
H        1.4931204856   -2.2895002328    0.2299052832
H        0.1322831570   -1.3936068090   -0.4909327035
H        5.5465804482   -2.0886073496   -1.9453018355
18   

C        4.5873769295    1.5891786925    0.5710030503
C        5.8160857192    1.0573664769    0.1832783696
C        3.4013773660    0.9691332496    0.1695989583
C        5.8506140506   -0.0972988521   -0.6016724696
C        3.4262035409   -0.1879580558   -0.6189376908
C        4.6666469870   -0.7254584922   -1.0048189664
C        2.1378869441   -0.8202344679   -1.0829247623
C        1.0683738713   -1.1964377437   -0.0661122843
O        1.8879807669   -0.9476320896   -2.2702253857
O        4.7369425913   -1.8663151765   -1.7506790524
H        4.5521594508    2.4877255600    1.1768117216
H        6.7387814450    1.5386785822    0.4893628509
H        2.4546726622    1.4086709892    0.4640783791
H        6.8099936935   -0.5059994989   -0.8934522402
H        0.9027600981   -0.3783770766    0.6383455116
H        1.3913747214   -2.0829376589    0.4860607460
H        0.1274384340   -1.4194564091   -0.5769826655
H        5.6446561948   -2.0152495516   -2.0614424897
18   

C        4.5896341957    1.4929910183    0.6481590630
C        5.8229804705    1.0375991320    0.1887725789
C        3.4169433033    0.8414435645    0.2592721180
C        5.8756164104   -0.0743788590   -0.6531176019
C        3.4536729761   -0.2734179294   -0.5920953886
C        4.7060734311   -0.7363167897   -1.0453527442
C        2.1758319672   -0.9312762710   -1.0345160578
C        1.0531048841   -1.1592906747   -0.0315612681
O        1.9925979962   -1.2542376615   -2.1979606306
O        4.8118148414   -1.8395187496   -1.8419023003
H        4.5398555722    2.3567566711    1.3016830590
H        6.7356600942    1.5434717479    0.4851596693
H        2.4673310182    1.2240328398    0.6168936555
H        6.8402144838   -0.4256924861   -0.9976819484
H        0.5363876470   -0.2181179314    0.1714438056
H        1.4657302228   -1.5555579238    0.9000847393
H        0.3356776412   -1.8805302357   -0.4332035972
H        5.7172439324   -1.9336580192   -2.1785108794
18   

C        4.5826632218    1.4237069043    0.7108281022
C        5.8176382421    1.0461818719    0.1930186327
C        3.4274337081    0.7374722381    0.3308361422
C        5.8899833648   -0.0242298271   -0.6980375931
C        3.4775569990   -0.3374059328   -0.5740333023
C        4.7395327030   -0.7229813152   -1.0840154701
C        2.2133872515   -1.0303569648   -0.9864765866
C        1.0264260759   -1.0897586778   -0.0326454793
O        2.0871653499   -1.5527736810   -2.0846796626
O        4.8844433987   -1.7840944502   -1.9299149104
H        4.5174260585    2.2542805002    1.4048017921
H        6.7168346453    1.5792299667    0.4829619910
H        2.4800889562    1.0673826296    0.7423462277
H        6.8577378250   -0.3155375805   -1.0868881782
H        0.4810625693   -0.1429474074   -0.0592291083
H        1.3745462955   -1.2829992843    0.9855318963
H        0.3512048908   -1.8974029494   -0.3294581865
H        5.7934630140   -1.8355862408   -2.2650854836
18   

C        4.6207900428    1.3814590638    0.7150208464
C        5.8377374006    1.0479810405    0.1324740625
C        3.4647988220    0.6795402156    0.3686603171
C        5.8910279011    0.0068742665   -0.7919491767
C        3.4892121383   -0.3712249734   -0.5686232400
C        4.7405654556   -0.7083133009   -1.1476939871
C        2.2250232610   -1.0910941863   -0.9251415909
C        0.9827394963   -0.9537660829   -0.0512912058
O        2.1364666913   -1.8138890230   -1.9086446949
O        4.8848073335   -1.7305616463   -2.0401900185
H        4.5697222898    2.1894924116    1.4362838025
H        6.7377644784    1.5924496204    0.3975958396
H        2.5379597961    0.9820619148    0.8421447734
H        6.8462522346   -0.2483905576   -1.2335671778
H        0.5472088126    0.0407832960   -0.1775932740
H        1.2438553049   -1.1115398205    0.9984647258
H        0.2392605094   -1.7023741993   -0.3401066630
H        5.7951709648   -1.7736718495   -2.3721084190
18   

C        4.6296201119    1.3631536740    0.7326776904
C        5.8322206775    1.0850063380    0.0954469574
C        3.4864214599    0.6250096212    0.4213919426
C        5.8829988061    0.0661348042   -0.8527034242
C        3.5073892624   -0.4113221858   -0.5332159435
C        4.7452474087   -0.6839005087   -1.1766033080
C        2.2589105601   -1.1798849009   -0.8387197265
C        0.9501179607   -0.8554548230   -0.1252595443
O        2.2285397163   -2.0876898648   -1.6594186106
O        4.8890443253   -1.6621162722   -2.1171690327
H        4.5801025397    2.1545148000    1.4723126630
H        6.7226535239    1.6565268481    0.3347956891
H        2.5753353057    0.8835827963    0.9479434183
H        6.8262915485   -0.1410745099   -1.3425141393
H        0.6576815016    0.1772125187   -0.3326087390
H        1.0667093351   -0.9982210938    0.9522096942
H        0.1566413190   -1.5196080300   -0.4802676847
H        5.8023436799   -1.6989124148   -2.4413937457
