23   
Generated by ForceBalance from scan.xyz: Frame 1 of 24
C        3.7552336179   -0.3135297576    5.4325111320
C        2.4571250611   -0.7172863211    5.5283816052
C        0.7044573084    0.4205026712    2.2695929610
C        0.2717042002   -0.2892663096    1.1874360186
C        2.6305608173    1.5065467362    5.0890024019
C       -0.8681675534   -1.0099095708    2.9493157321
C       -1.4449556505   -2.1227730405    0.7839013920
N        3.8415559970    1.0527137722    5.1611059697
N        1.7032585226    0.4605483312    5.3244142941
N       -0.0213312995   -0.0453078490    3.3586132021
N       -0.7069003705   -1.1707778759    1.6331459727
O       -0.6018029237   -0.5213913035    5.7845714630
O       -0.3170011058    1.9238723663    5.0242374608
S        0.0705467502    0.5398217605    5.0779491221
H        4.6457865172   -0.9144837597    5.5617331127
H        1.9845379426   -1.6582333653    5.7691307131
H        1.4506612422    1.1971362828    2.3550694772
H        0.5744832879   -0.2443494007    0.1508294206
H        2.3033689901    2.5257099140    4.9256099701
H       -1.5506531047   -1.5520038660    3.5889496518
H       -0.7367715707   -2.8022478498    0.3078209327
H       -2.1353582242   -2.6912107881    1.4058648217
H       -2.0040787346   -1.5694549910    0.0281231381
23   
Generated by ForceBalance from scan.xyz: Frame 2 of 24
C        3.8492171358   -0.1374676219    5.3802812034
C        2.5887424196   -0.6418501447    5.4997807684
C        0.8898003091    0.1817067662    2.3631128617
C        0.4113488405   -0.4605855165    1.2577747123
C        2.5804439453    1.5965917591    5.0954904771
C       -0.9378074106   -0.9572295665    2.9465879358
C       -1.5555882305   -1.9927023869    0.7538408734
N        3.8239913423    1.2352688568    5.1294377849
N        1.7423467797    0.4777719842    5.3332477188
N        0.0295009404   -0.1399472713    3.4054679730
N       -0.7255090861   -1.1609628438    1.6434255429
O       -0.4737922662   -0.6784247952    5.8441025525
O       -0.3949236891    1.7855344599    5.1127281268
S        0.1023135895    0.4358834706    5.1347903679
H        4.7861529866   -0.6700910671    5.4771343477
H        2.1949983560   -1.6205686155    5.7319569179
H        1.7525763109    0.8190663996    2.4936484502
H        0.7828183678   -0.4831863963    0.2430212458
H        2.1713131290    2.5889508624    4.9528104405
H       -1.7351524808   -1.3788777895    3.5426494266
H       -0.9403513867   -2.7861515238    0.3274778738
H       -2.3671064970   -2.4310848060    1.3333790399
H       -1.9683751836   -1.3672973118   -0.0389044263
23   
Generated by ForceBalance from scan.xyz: Frame 3 of 24
C        3.8820875050    0.0358008138    5.3443767926
C        2.6651090426   -0.5578261877    5.4988657579
C        1.0049435515   -0.0678494398    2.4290731502
C        0.4995238048   -0.6447625709    1.2993686489
C        2.4827525105    1.6645535484    5.0445657688
C       -1.0083385554   -0.9018776152    2.9040920223
C       -1.6468461536   -1.8617870717    0.6828199171
N        3.7501878940    1.3969357112    5.0637926742
N        1.7346485402    0.4925323288    5.3226178070
N        0.0434782830   -0.2364425120    3.4180363078
N       -0.7526124842   -1.1554624458    1.6174004540
O       -0.3694452877   -0.8368163879    5.8741552605
O       -0.5112998081    1.6255387994    5.1585301425
S        0.0996388326    0.3228387431    5.1596918394
H        4.8576986854   -0.4233291008    5.4357545319
H        2.3480276130   -1.5574451814    5.7581016590
H        1.9459666226    0.4320781535    2.6069709374
H        0.9235356075   -0.7386885409    0.3096437463
H        1.9985374894    2.6195596931    4.8835801610
H       -1.8966941901   -1.1897969841    3.4488503109
H       -1.1341331836   -2.7419920894    0.2927107597
H       -2.5457005013   -2.1693602384    1.2157989480
H       -1.9167125380   -1.1892058723   -0.1325342371
23   
Generated by ForceBalance from scan.xyz: Frame 4 of 24
C        3.9382270092    0.2295766574    5.3277020179
C        2.7759634007   -0.4540553294    5.5248240594
C        1.1004001925   -0.3240109707    2.4921380996
C        0.5607235905   -0.8220901911    1.3406084709
C        2.4079605754    1.7224950803    4.9635008425
C       -1.0370948538   -0.8309407981    2.8749301626
C       -1.7199965658   -1.6922612297    0.6261924482
N        3.6930911986    1.5597926476    4.9817405895
N        1.7614491063    0.5082340476    5.3049561595
N        0.0815408046   -0.3358520152    3.4372879575
N       -0.7679946277   -1.1306711807    1.6009583531
O       -0.1995752478   -0.9953303581    5.9152669581
O       -0.5870768803    1.4400349977    5.2094362078
S        0.1434595566    0.1999370938    5.1892726168
H        4.9489921163   -0.1429104138    5.4308762556
H        2.5421456489   -1.4620769554    5.8352334561
H        2.0985950915    0.0256580994    2.7104660310
H        1.0075819116   -0.9833836635    0.3698411227
H        1.8467336159    2.6255758270    4.7592337050
H       -1.9864384976   -0.9654606343    3.3744138029
H       -1.3356616079   -2.6444551796    0.2582145419
H       -2.6788565795   -1.8515393421    1.1179513796
H       -1.8440081691   -0.9900938765   -0.1993732451
23   
Generated by ForceBalance from scan.xyz: Frame 5 of 24
C        3.0199376995    2.7412060181    4.6921910432
C        1.6873650777    2.4783813974    4.8031730017
C        1.0173751470    0.0351142913    2.4290313558
C        0.4565178070   -0.4644036873    1.2883601269
C        2.9625955665    0.6425430332    5.2364378506
C       -0.9610799377   -0.8536859845    2.9470207655
C       -1.7078773647   -1.6627700473    0.6996525771
N        3.7849419110    1.6033751468    4.9554678881
N        1.6271413643    1.1135516750    5.1731611086
N        0.1142459805   -0.2215964724    3.4537740172
N       -0.7715614553   -1.0130868659    1.6340342969
O        0.5598493531   -1.0723556742    5.8670849002
O       -0.8990767872    0.9991352307    5.4847918458
S        0.2627286281    0.1859312762    5.2344186699
H        3.4892914408    3.6870393452    4.4552102629
H        0.7951239714    3.0818692047    4.7204919160
H        1.9577076526    0.5412911263    2.5899821861
H        0.8238398566   -0.4732459968    0.2719443408
H        3.1905172017   -0.3785347335    5.5151993405
H       -1.8283395186   -1.1705449851    3.5094306844
H       -1.2187964235   -2.5246665252    0.2437498061
H       -2.5881220125   -1.9915327100    1.2507260217
H       -2.0033417075   -0.9459760672   -0.0676597404
23   
Generated by ForceBalance from scan.xyz: Frame 6 of 24
C        2.8495427320    2.8703166441    4.6392694696
C        1.5442855443    2.4977982297    4.7605503292
C        1.1329452818   -0.2010722525    2.5059715008
C        0.5420866539   -0.6287139501    1.3516875058
C        2.9710837878    0.8027448770    5.2810692473
C       -0.9785623583   -0.7581278633    2.9600630418
C       -1.7626018813   -1.4813505660    0.6961844410
N        3.7089069021    1.8179771005    4.9601471463
N        1.5994642641    1.1529183427    5.1946704920
N        0.1653163606   -0.2948458195    3.4987429865
N       -0.7690096527   -0.9714135633    1.6578152784
O        0.7507025521   -1.1154601889    5.9042853712
O       -0.9063609245    0.8060293146    5.5448245158
S        0.3245181657    0.1069898102    5.2763088028
H        3.2363652134    3.8411760955    4.3586127746
H        0.6044151319    3.0184583058    4.6485234260
H        2.1343026960    0.1566847852    2.6970922359
H        0.9381737440   -0.7115110368    0.3494751531
H        3.2839119203   -0.1804412923    5.6096209218
H       -1.9056723870   -0.9144907713    3.4937744643
H       -1.4011461927   -2.4185971654    0.2709382747
H       -2.7034504457   -1.6553936639    1.2168679490
H       -1.9117384435   -0.7415882350   -0.0914829397
23   
Generated by ForceBalance from scan.xyz: Frame 7 of 24
C        2.7015728411    2.9373884794    4.6205210249
C        1.4291974368    2.4667463562    4.7503784518
C        1.2121941043   -0.4797186888    2.5456643426
C        0.5941562049   -0.8316451591    1.3806292225
C        2.9833568842    0.8884066368    5.2677169739
C       -0.9743783357   -0.6816594848    2.9417845485
C       -1.7981733339   -1.3181614281    0.6663157490
N        3.6404894172    1.9549505346    4.9388265150
N        1.5883340631    1.1325006990    5.1891901287
N        0.2136968176   -0.3945527784    3.5077374979
N       -0.7638266921   -0.9533590019    1.6507980527
O        0.9393599471   -1.2015285048    5.8775751992
O       -0.8763798830    0.5881119399    5.5871897596
S        0.3987603176   -0.0095372142    5.2806218811
H        3.0116227519    3.9338377929    4.3343995190
H        0.4524658881    2.9155893451    4.6437290665
H        2.2517052544   -0.2810074547    2.7638338860
H        1.0000392238   -0.9981825322    0.3928296458
H        3.3716307076   -0.0657198781    5.6015278739
H       -1.9272696191   -0.6775595220    3.4524753533
H       -1.5745017468   -2.3063118757    0.2620698027
H       -2.7681401326   -1.3374850301    1.1616897636
H       -1.8100663594   -0.5765127293   -0.1335406259
23   
Generated by ForceBalance from scan.xyz: Frame 8 of 24
C        2.5170777460    3.0447029820    4.6043498044
C        1.2877761483    2.4791752740    4.7657895519
C        1.2526949518   -0.7677644251    2.6095241953
C        0.6211259224   -1.0473703016    1.4326558519
C        2.9685036266    1.0163296837    5.2193350828
C       -0.9479623331   -0.5768943030    2.9290872322
C       -1.7957350080   -1.1452774290    0.6446817179
N        3.5349547697    2.1323333162    4.8862770640
N        1.5581043137    1.1568617220    5.1854003059
N        0.2537333969   -0.4777795991    3.5301530811
N       -0.7459249305   -0.9245343603    1.6553090432
O        1.1080135890   -1.2228429712    5.8633708502
O       -0.8464946701    0.4331585901    5.6284815415
S        0.4601077226   -0.0733882931    5.2908647898
H        2.7437388498    4.0643039427    4.3215615632
H        0.2780933034    2.8564395011    4.6958020624
H        2.3026750009   -0.7509696489    2.8635076231
H        1.0230102047   -1.3186169120    0.4666571346
H        3.4368610493    0.0925688003    5.5351736132
H       -1.9005101384   -0.4006851778    3.4090422514
H       -1.7315588557   -2.1714848470    0.2804230369
H       -2.7698754310   -0.9812227427    1.1037598367
H       -1.6553218546   -0.4428900016   -0.1780474808
23   
Generated by ForceBalance from scan.xyz: Frame 9 of 24
C       -3.5446119113    1.0935998447    6.2760004895
C       -2.6784880712    0.0596041742    6.0821414011
C       -0.7067357858    0.6929439780    2.5016792509
C       -1.0202733912    0.0586113588    1.3351477505
C       -1.6776169759    2.0791219283    5.7899575217
C       -0.7478181829   -1.5059990380    2.8851084800
C       -1.3210018862   -2.3591056742    0.6038029323
N       -2.9128833297    2.3244761937    6.0918675579
N       -1.4450924216    0.6816610036    5.7817425833
N       -0.5411604936   -0.3029337238    3.4558945035
N       -1.0387810710   -1.3073116592    1.5968962793
O        0.9825600418    0.8808071418    5.1607822616
O       -0.0400458822   -1.4323199674    5.6728540807
S       -0.0939983826   -0.0723689553    5.1985900373
H       -4.5870913686    1.0382054799    6.5608651789
H       -2.7629742750   -1.0124791484    6.1826720345
H       -0.5746282030    1.7411001022    2.7271876326
H       -1.2245317602    0.4567878460    0.3513001576
H       -0.8780985335    2.7866746840    5.6104984137
H       -0.6740651969   -2.4569207088    3.3939544944
H       -0.5790792907   -2.3063868548   -0.1941572744
H       -1.2644312827   -3.3316571479    1.0911950527
H       -2.3227196277   -2.2099127547    0.1985296946
23   
Generated by ForceBalance from scan.xyz: Frame 10 of 24
C       -3.5362772518    0.9028772518    6.3025986507
C       -2.5728609659   -0.0471443472    6.1400777205
C       -0.3900529323    0.7109759700    2.4340806622
C       -0.7662684153    0.0692082181    1.2902689159
C       -1.7902260796    2.0436792932    5.7188095788
C       -0.8158292493   -1.4239206478    2.9311824133
C       -1.4444905092   -2.3038606855    0.6749041118
N       -3.0381362712    2.1795689464    6.0381968761
N       -1.4152456058    0.6798427302    5.7784725076
N       -0.4317923344   -0.2395481037    3.4466123791
N       -1.0251255315   -1.2564535425    1.6230691250
O        0.9818065890    1.0719999402    5.1263515135
O        0.1453631280   -1.3124494863    5.6791253097
S       -0.0112178909    0.0328145515    5.1873167362
H       -4.5610845998    0.7580445655    6.6185273000
H       -2.5428102053   -1.1140644528    6.3055108070
H       -0.0804520864    1.7305288973    2.6124782359
H       -0.8618744958    0.4350007822    0.2777238109
H       -1.0734058471    2.8185479143    5.4789982943
H       -0.9098569112   -2.3455889378    3.4878882856
H       -0.6790739049   -2.4180820487   -0.0938829744
H       -1.5638445877   -3.2431351811    1.2135391452
H       -2.3947609431   -2.0175256778    0.2221867112
23   
Generated by ForceBalance from scan.xyz: Frame 11 of 24
C       -3.1158022936    0.6080811431    6.5771072456
C       -1.9843123332    1.1369755996    6.0322999975
C       -0.4043495010    0.7913688044    2.4539283081
C       -0.7888587327    0.1662587402    1.3031820466
C       -1.7786879996   -1.0902072168    6.4304164496
C       -0.4972282826   -1.4058953816    2.8392307392
C       -1.1977985637   -2.2406219966    0.5867605806
N       -2.9713753167   -0.7598824713    6.8141228457
N       -1.0887880382    0.0460299639    5.9464174861
N       -0.2348694117   -0.2098340637    3.4023105696
N       -0.8399076071   -1.1986739601    1.5658263450
O        0.8830615046    1.3613355402    5.0613081194
O        1.0247667231   -1.2012648318    5.3957851105
S        0.3374688943    0.0308644020    5.1052530995
H       -4.0282550667    1.1271038768    6.8396616686
H       -1.6842850718    2.1390931237    5.7631792817
H       -0.2185787665    1.8315327631    2.6794091091
H       -1.0204675198    0.5699819443    0.3277560463
H       -1.3005553707   -2.0592042299    6.4948897454
H       -0.4150877882   -2.3633039105    3.3338058182
H       -0.5015291951   -2.1973705242   -0.2518099920
H       -1.1315597588   -3.2164373124    1.0663292001
H       -2.2180966463   -2.0711055688    0.2400624267
23   
Generated by ForceBalance from scan.xyz: Frame 12 of 24
C       -3.1707690093    0.4057750879    6.5285564147
C       -2.0885977685    1.0252304726    5.9783682673
C       -0.1841302752    0.7937676167    2.3875249662
C       -0.5983679299    0.1578155042    1.2529566510
C       -1.6702572616   -1.1552033872    6.4587590056
C       -0.6337889481   -1.3330327042    2.8950504352
C       -1.3423507068   -2.2004409891    0.6577916124
N       -2.8954423967   -0.9318204767    6.8166877984
N       -1.0886384399    0.0272775927    5.9421923835
N       -0.2252037821   -0.1539084105    3.4031923532
N       -0.8722044965   -1.1625974186    1.5925479049
O        0.7892612459    1.4850472537    5.0573129654
O        1.1160195025   -1.0548158115    5.4106359074
S        0.3393009898    0.1192524765    5.1084147416
H       -4.1339601357    0.8405022327    6.7613600623
H       -1.8874076524    2.0408985581    5.6705382963
H        0.1386430987    1.8091206990    2.5676252357
H       -0.7143846213    0.5252369915    0.2431972130
H       -1.0972524889   -2.0673898572    6.5668631938
H       -0.7347046107   -2.2569132662    3.4464009094
H       -0.6081152856   -2.3217263201   -0.1397484066
H       -1.4542096386   -3.1402803547    1.1970429413
H       -2.3050872278   -1.8993727253    0.2425418432
23   
Generated by ForceBalance from scan.xyz: Frame 13 of 24
C       -3.1841539964    0.2307218335    6.4858121479
C       -2.1608276508    0.9379302961    5.9280598756
C        0.0390305239    0.7765426725    2.3275076159
C       -0.4058697789    0.1199538477    1.2163471066
C       -1.5378960389   -1.1777167358    6.4743650439
C       -0.7542326337   -1.2133916901    2.9545018096
C       -1.4754541531   -2.1386510440    0.7446585729
N       -2.7836572056   -1.0652812021    6.8136922808
N       -1.0690831272    0.0417555155    5.9281430093
N       -0.2002649824   -0.0702716522    3.4033449678
N       -0.8945815821   -1.1139806682    1.6303492776
O        0.6999807250    1.6449975584    5.0461136591
O        1.2251889134   -0.8515183538    5.4262215141
S        0.3546171025    0.2493785613    5.1071735358
H       -4.1879229338    0.5753670453    6.6970351742
H       -2.0569148990    1.9586422215    5.5898724595
H        0.4910183799    1.7495220018    2.4571805771
H       -0.4149005707    0.4205744012    0.1782576011
H       -0.8787473997   -2.0255031269    6.6132530034
H       -1.0368581952   -2.0612942144    3.5621415503
H       -0.7327019139   -2.4293247950    0.0005396441
H       -1.7542818007   -3.0069670950    1.3404105534
H       -2.3606947610   -1.7302557097    0.2552752123
23   
Generated by ForceBalance from scan.xyz: Frame 14 of 24
C       -3.2075877426    0.1187080115    6.3822347302
C       -2.2567911110    0.9129072673    5.8126244005
C        0.2249318698    0.7568346023    2.2137684864
C       -0.2429016888    0.0591207763    1.1375955887
C       -1.4237595769   -1.1113753393    6.4234763091
C       -0.8774345539   -1.0344002422    2.9605106938
C       -1.6026284304   -2.0628443114    0.7979043256
N       -2.6788319781   -1.1197582809    6.7482235766
N       -1.0787969119    0.1346786263    5.8450499222
N       -0.1935122288    0.0617869552    3.3421551041
N       -0.9256795787   -1.0488352435    1.6257638107
O        0.5422937950    1.8916224149    4.9492456767
O        1.3056329087   -0.5254578012    5.3918540451
S        0.3295911739    0.4712944767    5.0389323198
H       -4.2438321613    0.3629609432    6.5759593919
H       -2.2551747663    1.9290420075    5.4456527295
H        0.7934357381    1.6732692683    2.2842776757
H       -0.1526475404    0.2559260895    0.0787217146
H       -0.6822089558   -1.8834167899    6.5871833260
H       -1.3215638140   -1.7660642865    3.6209764281
H       -0.8729115087   -2.5226226742    0.1301002398
H       -2.0321378900   -2.8238785841    1.4483193112
H       -2.3947654146   -1.5847939854    0.2199838796
23   
Generated by ForceBalance from scan.xyz: Frame 15 of 24
C       -3.2177441574   -0.0567143651    6.3251674623
C       -2.3363389556    0.8228185079    5.7690856537
C        0.4184682820    0.6578774291    2.1861994919
C       -0.0727691243   -0.0548280343    1.1307015977
C       -1.3312790222   -1.1236859490    6.3773515643
C       -0.9895928888   -0.8843263805    2.9733485807
C       -1.7100522875   -1.9789440284    0.8419119285
N       -2.5843698565   -1.2462416488    6.6879751877
N       -1.0940953766    0.1512313252    5.8081025566
N       -0.1762820987    0.1303067194    3.3259580334
N       -0.9458305647   -1.0067350856    1.6434733276
O        0.3609167642    2.0530926906    4.9200794408
O        1.3565592045   -0.2671676082    5.3957066759
S        0.2875947400    0.6197553698    5.0205204686
H       -4.2731618812    0.0934036352    6.5112300538
H       -2.4203386711    1.8380065505    5.4089031702
H        1.1095714384    1.4877430665    2.2293615334
H        0.1188599277    0.0360012925    0.0709308110
H       -0.5264191306   -1.8301058321    6.5383963764
H       -1.5835105566   -1.4857261930    3.6474016436
H       -1.0144788395   -2.5966733594    0.2723123093
H       -2.2944079121   -2.6097003477    1.5108013140
H       -2.3782926268   -1.4423575714    0.1669758703
23   
Generated by ForceBalance from scan.xyz: Frame 16 of 24
C       -3.2394106958   -0.2423402267    6.3570781002
C       -2.4423189532    0.7229533728    5.8159220781
C        0.6090815999    0.5222356795    2.2755388044
C        0.1014898937   -0.1779763806    1.2195788170
C       -1.2655682036   -1.1395756209    6.3804601034
C       -1.0938076101   -0.7190288586    3.0095811024
C       -1.7905805065   -1.8438123154    0.8858166223
N       -2.5016824260   -1.3786505715    6.6923092690
N       -1.1450633345    0.1609915716    5.8355306948
N       -0.1561323086    0.1741031701    3.3818691607
N       -0.9556759240   -0.9415921586    1.6986604931
O        0.0851125218    2.2065870413    4.9437157929
O        1.3563522116    0.0439371588    5.4862645242
S        0.1906418564    0.7776578125    5.0710599361
H       -4.3027531363   -0.1893791448    6.5512064815
H       -2.6152896845    1.7347343304    5.4784112465
H        1.4241612699    1.2294844495    2.3352890631
H        0.3979503752   -0.1958477621    0.1804079171
H       -0.4022437364   -1.7783191103    6.5193342302
H       -1.8344246413   -1.1715286511    3.6533244995
H       -1.1574139077   -2.6115470537    0.4390376883
H       -2.5351829920   -2.3132426815    1.5276893947
H       -2.2903939828   -1.2663324304    0.1069200541
23   
Generated by ForceBalance from scan.xyz: Frame 17 of 24
C       -3.1347729345   -0.4439718829    6.4290285241
C       -2.4528540259    0.5901731214    5.8583295450
C        0.7830880840    0.2633952323    2.3078244752
C        0.2434388246   -0.4028426748    1.2457268866
C       -1.0917179272   -1.1646408726    6.3497124326
C       -1.1698096143   -0.6086081558    2.9445039627
C       -1.8765238362   -1.7436079672    0.8292715939
N       -2.2854678000   -1.5127749378    6.7184515230
N       -1.1109126534    0.1425348304    5.8107990468
N       -0.1136295104    0.1179566596    3.3591493642
N       -0.9688995333   -0.9368861611    1.6642255857
O       -0.1749848742    2.2769231208    4.7997633873
O        1.3912496673    0.3464757832    5.4312897439
S        0.1291933098    0.8852145724    4.9991771304
H       -4.1877429025   -0.4845408513    6.6758428418
H       -2.7268366771    1.5864515424    5.5419938422
H        1.7116611284    0.8068364100    2.4104497711
H        0.6165743652   -0.5435674764    0.2412077456
H       -0.1716723532   -1.7284523062    6.4397054427
H       -2.0304407452   -0.8768487708    3.5409167106
H       -1.3560581162   -2.6440306632    0.5001095931
H       -2.7489523492   -2.0217000377    1.4194348673
H       -2.1906415677   -1.1528145869   -0.0322438976
23   
Generated by ForceBalance from scan.xyz: Frame 18 of 24
C        3.0412012062   -1.3259566763    5.7493887068
C        1.7673779049   -0.8737536040    5.9302275698
C       -0.8335344586    1.1109391334    2.3079641779
C       -1.0411406501    0.1960986079    1.3162477124
C        3.0009045681    0.5358229869    4.6410855681
C        0.1775123347   -0.7937235468    2.8842008621
C       -0.3614653409   -2.2180904920    0.8986179114
N        3.7813615576   -0.4520127379    4.9523488871
N        1.7271677820    0.3541983912    5.2249554770
N       -0.0607979658    0.4744993896    3.2717068073
N       -0.4035945294   -0.9790637006    1.6952181015
O       -0.6997656781    0.8295282501    5.7721338879
O        0.7006430324    2.5711588839    4.5097990616
S        0.3583762542    1.2237010529    4.8807724748
H        3.4896115346   -2.2197202883    6.1635017351
H        0.9237374356   -1.2168877614    6.5118835503
H       -1.1413229686    2.1423314700    2.4060969516
H       -1.5778715565    0.2818554185    0.3820948564
H        3.2363607048    1.4129927088    4.0516140825
H        0.7493055354   -1.5265880821    3.4368981922
H        0.1400429412   -2.0190378011   -0.0494771658
H        0.1900750708   -2.9774359545    1.4516728646
H       -1.3809158618   -2.5633040981    0.7214200190
23   
Generated by ForceBalance from scan.xyz: Frame 19 of 24
C        3.1663999546   -1.2455192058    5.7228252332
C        1.8600352153   -0.9090736181    5.9213368670
C       -0.6247963470    1.1220039969    2.2505885110
C       -0.8550602095    0.2285206741    1.2443772895
C        2.9691397715    0.6531770779    4.6982937452
C        0.0251862269   -0.8992605334    2.9399225334
C       -0.5016255741   -2.2673939660    0.9120496884
N        3.8298856333   -0.2785820513    4.9669212416
N        1.7171043859    0.3433107332    5.2743395393
N       -0.0631113106    0.3974430955    3.2952494581
N       -0.4427066630   -1.0201100501    1.6945351932
O       -0.7462728750    0.5593872969    5.8024863587
O        0.4984488717    2.4825316744    4.6360262126
S        0.2771916070    1.0943737607    4.9444088508
H        3.6887738339   -2.1158018691    6.0984364860
H        1.0522909492   -1.3419929038    6.4939544515
H       -0.7896386073    2.1880093884    2.3171659468
H       -1.2699263255    0.3734093896    0.2569773313
H        3.1299238105    1.5707702763    4.1466116782
H        0.4225793311   -1.6961922687    3.5528949019
H        0.1184153343   -2.1620377569    0.0207357425
H       -0.1277415921   -3.0882255307    1.5228658246
H       -1.5371417289   -2.4635165191    0.6307601876
23   
Generated by ForceBalance from scan.xyz: Frame 20 of 24
C        3.2650256249   -1.1343269841    5.7167365809
C        1.9312007745   -0.9258655632    5.9062483374
C       -0.4161239697    1.1136725760    2.2260164522
C       -0.6697375133    0.2496264066    1.2001189466
C        2.9176175377    0.7979022989    4.8017588185
C       -0.1563117155   -0.9714748420    2.9797197078
C       -0.6750306380   -2.2763191499    0.9087751041
N        3.8529896016   -0.0688053980    5.0341904441
N        1.6887573900    0.3467967026    5.3343180057
N       -0.0837162882    0.3291062414    3.3244904562
N       -0.5012662047   -1.0399171929    1.6913892624
O       -0.7916508875    0.3181120706    5.8164339140
O        0.3070790741    2.3913908476    4.7528661923
S        0.1941004091    0.9784733348    5.0020268755
H        3.8564122761   -1.9763222050    6.0521506333
H        1.1584116127   -1.4594695945    6.4406397470
H       -0.4343412054    2.1927734631    2.2805036488
H       -0.9539450336    0.4396188464    0.1748382022
H        3.0052181438    1.7577295741    4.3087259253
H        0.0359169311   -1.8099892954    3.6335080856
H        0.0407569427   -2.2839575342    0.0856328298
H       -0.4979133446   -3.1345343127    1.5558626511
H       -1.6946784944   -2.3139786185    0.5230453679
23   
Generated by ForceBalance from scan.xyz: Frame 21 of 24
C        3.4138576140   -1.0263199793    5.6510937721
C        2.0654570012   -0.9402024022    5.8306467774
C       -0.1693827313    1.0342718215    2.1826447401
C       -0.4514491486    0.1902147576    1.1478664115
C        2.9165416520    0.9204346249    4.8427899119
C       -0.2973391534   -1.0457541580    2.9835426359
C       -0.8197255954   -2.3128141751    0.8900889963
N        3.9183828293    0.1229248378    5.0408971910
N        1.7231991291    0.3386975904    5.3302318703
N       -0.0648299876    0.2387835752    3.3178347007
N       -0.5259024316   -1.0968859492    1.6689687738
O       -0.7502761413    0.1043094970    5.7935395209
O        0.2039902509    2.2858848815    4.7972530881
S        0.1862937254    0.8619996726    5.0053457837
H        4.0697606043   -1.8347717867    5.9465690318
H        1.3355300650   -1.5680779137    6.3206179425
H       -0.0432510650    2.1066522506    2.2237031602
H       -0.6101806370    0.3932686034    0.0982700898
H        2.9289332099    1.9126148136    4.4100298609
H       -0.3115084708   -1.8822191724    3.6671534239
H       -0.0453592215   -2.4504119640    0.1341808665
H       -0.8324281400   -3.1705704356    1.5614353612
H       -1.7960723319   -2.2057427288    0.4155586181
23   
Generated by ForceBalance from scan.xyz: Frame 22 of 24
C        3.5151015198   -0.8379238337    5.5953913258
C        2.1614902863   -0.8862398951    5.7456635388
C        0.0425622194    0.9526763318    2.1539125087
C       -0.2638138801    0.1247503715    1.1133140692
C        2.8564461952    1.1050790326    4.9012354848
C       -0.4601681387   -1.0605163971    2.9789440719
C       -0.9778853768   -2.3043189369    0.8708491419
N        3.9231645732    0.3907426193    5.0739079561
N        1.7118947918    0.3856014055    5.3197098312
N       -0.0774502081    0.1887129744    3.3086983540
N       -0.5731488252   -1.1207030682    1.6499157294
O       -0.7389740583   -0.0548806133    5.7641426114
O        0.0561441768    2.2219698250    4.8342006072
S        0.1397987630    0.7954712227    5.0031127626
H        4.2366596433   -1.6020972954    5.8531328892
H        1.4837812241   -1.6121160766    6.1705537330
H        0.3111154246    1.9988076819    2.1838634982
H       -0.2971767172    0.3147003342    0.0498514685
H        2.7856411590    2.1223624891    4.5381415541
H       -0.6639331084   -1.8589905405    3.6779405330
H       -0.1726481450   -2.5758217853    0.1868823713
H       -1.1716863934   -3.1300901678    1.5543411191
H       -1.8855378795   -2.0714765536    0.3123801471
23   
Generated by ForceBalance from scan.xyz: Frame 23 of 24
C        3.5894570902   -0.5948450346    5.5258658025
C        2.2418777072   -0.7539279230    5.6518683550
C        0.2500067473    0.8790409077    2.1379727767
C       -0.0833850129    0.0536661997    1.1039365342
C        2.7927228755    1.3300780391    4.9339586263
C       -0.6212535705   -0.9943914023    2.9845757958
C       -1.1328763935   -2.2528796410    0.8834686904
N        3.9086786968    0.6895498632    5.0828156719
N        1.7014228447    0.5015012704    5.2897928307
N       -0.0911122935    0.2028911027    3.3028803968
N       -0.6235170351   -1.1043687448    1.6538209499
O       -0.7184404085   -0.0916152657    5.7492549097
O       -0.0604582923    2.2411693244    4.8483132339
S        0.1043181807    0.8195333983    4.9948059431
H        4.3640563337   -1.3170461823    5.7481930102
H        1.6168795639   -1.5555213161    6.0171185338
H        0.6697067787    1.8744425936    2.1504821135
H        0.0073868082    0.1925679283    0.0359183704
H        2.6480870219    2.3598871892    4.6333900909
H       -0.9965109150   -1.7187257102    3.6936536714
H       -0.3271032377   -2.6576261359    0.2696507871
H       -1.4842374276   -3.0169363081    1.5758384532
H       -1.9592550403   -1.9229661666    0.2523676334
23   
Generated by ForceBalance from scan.xyz: Frame 24 of 24
C        3.6963006359   -0.4540503075    5.4583514799
C        2.3686418829   -0.7425818866    5.5636298471
C        0.4955027687    0.6649797729    2.1780488220
C        0.1141428598   -0.1149770385    1.1255890124
C        2.7294026193    1.4314999389    5.0085434786
C       -0.7387202862   -1.0215876605    2.9628361727
C       -1.2795352643   -2.2231457516    0.8358263083
N        3.8981506146    0.8839193323    5.1163279751
N        1.7170024082    0.4820611384    5.2920106009
N       -0.0479027637    0.0804861072    3.3150886690
N       -0.6530224047   -1.1564095191    1.6368948690
O       -0.6518753924   -0.3106648992    5.7492339701
O       -0.1776844389    2.0895879751    4.9226364717
S        0.0978623589    0.6812653485    5.0203678169
H        4.5328236269   -1.1190345625    5.6286280653
H        1.8183133290   -1.6250453206    5.8551732899
H        1.0809148740    1.5721189739    2.2143471997
H        0.3166959612   -0.0172180649    0.0684041284
H        2.4908671011    2.4646707335    4.7900307534
H       -1.2727722341   -1.6661112445    3.6469532984
H       -0.5038701630   -2.7693886834    0.2974527995
H       -1.8097536423   -2.9023641482    1.5022641649
H       -1.9839384908   -1.7763445075    0.1328290839
