24   

C       -0.6266517039    1.2028798526   -0.0577408562
C        0.5635715259    0.6605188954    0.3739303750
C        1.5239331323    1.4391078584    1.2314323659
C       -1.5719762865    0.4568059493   -0.9496879646
C       -0.1021153156   -1.5102846647   -0.6668508581
C        3.6711395139    1.7676117620    2.4032496659
C        3.6130884794    0.3968768392    0.3270247946
N        0.8921958352   -0.6570094359   -0.0218197457
N       -0.8539503090   -0.6587726783   -1.5823035927
N        2.8787588125    1.0942211558    1.3782680903
O        1.1567470494    2.4617990752    1.8123676603
H       -0.8634869872    2.2256431467    0.2111939238
H       -2.4086421242    0.0769259204   -0.3542645358
H       -1.9692544401    1.1316248771   -1.7149527735
H        0.3943130409   -2.3101962792   -1.2249866807
H       -0.7686129994   -1.9526120677    0.0815580820
H        4.6112707179    1.2340797710    2.5751013751
H        3.1254804177    1.7894567580    3.3525218626
H        3.8944042565    2.7945097244    2.0967167464
H        4.6047221053    0.8432729255    0.2010500512
H        3.1076094569    0.4924971841   -0.6395101829
H        3.7341829603   -0.6611213708    0.5771735145
H        1.7502047428   -1.0796822088    0.3129337145
H       -1.4588552786   -1.2016581838   -2.1891464776
24   

C       -0.5837089095    1.1872395029   -0.0963824412
C        0.5506660577    0.6066449144    0.4227074343
C        1.4836639374    1.3522963927    1.3368038258
C       -1.5004162744    0.4544253925   -1.0285243230
C       -0.1435242427   -1.5662048662   -0.5864154588
C        3.6792697826    1.7440010492    2.3984664104
C        3.5597481102    0.4759693785    0.2530499800
N        0.8437611481   -0.7366878973    0.0991048189
N       -0.7935626084   -0.7127995206   -1.5762657275
N        2.8633400826    1.0953298934    1.3769373356
O        1.0593535571    2.2477287168    2.0704236607
H       -0.7932807710    2.2242314523    0.1379900147
H       -2.3919520043    0.1318531325   -0.4808081641
H       -1.8135915495    1.1200977747   -1.8394564123
H        0.3516738352   -2.4050531058   -1.0853427308
H       -0.8777973497   -1.9541245078    0.1279859821
H        4.6608159226    1.2647024810    2.4681805001
H        3.1998777625    1.6598172969    3.3794615996
H        3.8163585953    2.8030041089    2.1577973787
H        4.5067414951    0.9925089724    0.0667597125
H        2.9764958722    0.5554961543   -0.6701463263
H        3.7678653525   -0.5773548002    0.4623150264
H        1.6624181132   -1.1813391889    0.4995111808
H       -1.3819639336   -1.2493988181   -2.2046013967
24   

C       -0.5322727622    1.1806787977   -0.1305632104
C        0.5351287807    0.5561018168    0.4694374941
C        1.4516438287    1.2601362917    1.4344762790
C       -1.4249284065    0.4668960213   -1.1002411998
C       -0.2018489587   -1.6071007706   -0.5226963568
C        3.6835124720    1.7174995664    2.3953902775
C        3.4983048786    0.5576409414    0.1876960388
N        0.7783466581   -0.8100112868    0.2099143187
N       -0.7435680037   -0.7482234858   -1.5725833867
N        2.8433795802    1.1009159753    1.3744551781
O        0.9954407656    2.0015302817    2.3081198512
H       -0.7030645919    2.2315068154    0.0700740070
H       -2.3635262471    0.2026796802   -0.6020947477
H       -1.6538753091    1.1235985274   -1.9458843105
H        0.2827554151   -2.4808583702   -0.9693897844
H       -0.9995844592   -1.9417755938    0.1493260700
H        4.6861277742    1.2785987408    2.3833785749
H        3.2616034930    1.5493669019    3.3918232683
H        3.7645269754    2.7946260796    2.2186073315
H        4.3952382380    1.1399415567   -0.0459745920
H        2.8497290879    0.6170786636   -0.6923282685
H        3.7854297836   -0.4851004243    0.3517839395
H        1.5503670365   -1.2806964996    0.6698511181
H       -1.3171041770   -1.2725921070   -2.2245975941
24   

C       -0.3973545996    1.1799682980   -0.0983860000
C        0.5973904712    0.5102105026    0.5713560688
C        1.5252271129    1.1715821667    1.5594084122
C       -1.2848902107    0.4847763180   -1.0862855613
C       -0.2107375735   -1.6371645421   -0.3898773085
C        3.7978063933    1.7154710507    2.3807235937
C        3.5029095521    0.6642169966    0.1268971665
N        0.7736027556   -0.8744890383    0.3732151711
N       -0.6512722797   -0.7807182779   -1.4892324375
N        2.9135211457    1.1299545093    1.3793706647
O        1.0793556222    1.7413016975    2.5588715580
H       -0.5108609445    2.2455140257    0.0588865171
H       -2.2579727349    0.2880946204   -0.6243413852
H       -1.4388904283    1.1247505289   -1.9612070064
H        0.2467845511   -2.5481652286   -0.7881282286
H       -1.0587791717   -1.9093485865    0.2478754423
H        4.7995301077    1.2808940397    2.3053322188
H        3.4281766571    1.5128621153    3.3913104321
H        3.8674013992    2.7980703171    2.2361679086
H        4.3447794846    1.3052329659   -0.1530790508
H        2.7864597557    0.7082336811   -0.6996361505
H        3.8591982895   -0.3647679738    0.2323971145
H        1.4936364832   -1.3719538032    0.8868161937
H       -1.2214828280   -1.2928349611   -2.1538288764
24   

C       -0.3433229141    1.1944508458   -0.1754004618
C        0.5423535814    0.4744974475    0.5876943028
C        1.4425935155    1.0764774920    1.6407896329
C       -1.1877515689    0.5324178094   -1.2222137455
C       -0.2965357478   -1.6374329371   -0.4152776037
C        3.6977997885    1.7447533341    2.4393488727
C        3.3985944805    0.8547400243    0.1166289525
N        0.6595581958   -0.9197631946    0.4234904522
N       -0.5961516033   -0.7731919092   -1.5564027475
N        2.8178275741    1.1988920798    1.4115560459
O        0.9821644344    1.4307930642    2.7300846279
H       -0.3992556927    2.2682641598   -0.0479433618
H       -2.2037627298    0.3972297820   -0.8368231799
H       -1.2361670214    1.1645154821   -2.1148602281
H        0.1426631556   -2.5767816973   -0.7654216724
H       -1.2090541659   -1.8556516675    0.1501299030
H        4.6843638078    1.2745999700    2.3799133298
H        3.3066597725    1.5502558275    3.4431527097
H        3.8083109793    2.8252336029    2.3056686068
H        4.2101105048    1.5471267223   -0.1281826220
H        2.6642642882    0.9302716649   -0.6915579472
H        3.7956403559   -0.1646727058    0.1378617481
H        1.2884598674   -1.4485569090    1.0194388707
H       -1.1378668203   -1.2636011718   -2.2600847604
24   

C       -0.2040949832    1.2081129280   -0.2401008847
C        0.5522816298    0.4229041400    0.5941232054
C        1.4628698054    0.9444369718    1.6808367798
C       -1.0528591912    0.6019961531   -1.3168785887
C       -0.4132940773   -1.6233784099   -0.4206806119
C        3.6836176259    1.7564211225    2.4460488422
C        3.3399067120    1.0800666362    0.0567830609
N        0.5570680834   -0.9771255633    0.4585257479
N       -0.5713644419   -0.7613562278   -1.5923400116
N        2.7981003917    1.2529646977    1.4013436035
O        1.0346027847    1.0868141815    2.8307007552
H       -0.1551767580    2.2853494907   -0.1441130654
H       -2.0952511242    0.5714810333   -0.9825690351
H       -0.9967540999    1.2132692739   -2.2234031225
H       -0.0432775935   -2.6060358107   -0.7294936932
H       -1.3711330121   -1.7460226724    0.0965542616
H        4.2644604656    0.9346595203    2.8758080134
H        3.1206834891    2.2470291292    3.2465243135
H        4.3701219460    2.5011511977    2.0312979925
H        3.2136356907    1.9990255583   -0.5238388064
H        2.8529670835    0.2557431614   -0.4735695043
H        4.4059220784    0.8374140274    0.1078649773
H        1.0676035262   -1.5433997959    1.1293561125
H       -1.1196762841   -1.2167184344   -2.3142270403
24   

C       -0.0344677688    1.1982770273   -0.2747266316
C        0.6058837515    0.3650198598    0.6095581290
C        1.5434420256    0.8131615410    1.7034987796
C       -0.9245204869    0.6503366987   -1.3493860006
C       -0.5491445378   -1.5987748610   -0.3633459680
C        3.6994718372    1.7720530212    2.4647461981
C        3.3263053397    1.2684560520    0.0350056154
N        0.4682066654   -1.0294209141    0.5154659498
N       -0.5929182244   -0.7668535693   -1.5666484487
N        2.8190936016    1.2983751620    1.4029825958
O        1.1720612201    0.7613147259    2.8814887559
H        0.1317292445    2.2663200265   -0.2155537335
H       -1.9698914171    0.7469387299   -1.0374594897
H       -0.7846878524    1.2181462121   -2.2748678636
H       -0.2809876286   -2.6255462802   -0.6311585982
H       -1.5238503610   -1.6004325749    0.1366588070
H        4.2935326928    0.9427713495    2.8608436705
H        3.1242114964    2.2197858535    3.2817206147
H        4.3740634403    2.5440090909    2.0813757763
H        3.1084447726    2.2130694754   -0.4725301635
H        2.8857142971    0.4457189113   -0.5376636248
H        4.4090845156    1.1082897260    0.0374346917
H        0.8677635086   -1.6114736700    1.2463495024
H       -1.1754854249   -1.1862682947   -2.2834293291
24   

C        0.1730846229    1.0860918618   -0.3130496061
C        0.7567213743    0.2566022718    0.6147046717
C        1.7321722618    0.6823427529    1.6804015370
C       -0.7863936700    0.5533345742   -1.3346084621
C       -0.5964150866   -1.6498520537   -0.2000754029
C        3.8049062320    1.8118453090    2.4265329638
C        3.3852404279    1.4351419050   -0.0171601097
N        0.4925131938   -1.1199295279    0.6146648935
N       -0.5971383008   -0.9005046887   -1.4573274907
N        2.9265712011    1.3360536620    1.3642078069
O        1.4479138240    0.4733786721    2.8664909325
H        0.4238525699    2.1389847960   -0.3216291571
H       -1.8111233067    0.7713555810   -1.0153869899
H       -0.6129068675    1.0405032141   -2.2994736274
H       -0.4308499810   -2.7128732199   -0.4012008812
H       -1.5528134952   -1.5267633492    0.3197563816
H        4.4605524765    1.0038876992    2.7655564525
H        3.2224210837    2.1795069959    3.2777689498
H        4.4189414959    2.6439216208    2.0679375833
H        3.0759873602    2.3892080666   -0.4546016643
H        2.9909757978    0.6160078966   -0.6276102230
H        4.4767752155    1.3633198191   -0.0579479696
H        0.8302184036   -1.6689172907    1.4014300132
H       -1.2352136708   -1.3110847711   -2.1305684447
24   

C        0.2721000763    1.0026853470   -0.4147306760
C        0.7942941743    0.1715959400    0.5497278587
C        1.7845463329    0.5591953379    1.6139188715
C       -0.7393998513    0.5062030604   -1.4045784020
C       -0.7525058509   -1.6345666710   -0.1412016008
C        3.7720189351    1.7803170109    2.4345428555
C        3.3636538981    1.5665868915   -0.0274680236
N        0.3964612129   -1.1677687956    0.6274483651
N       -0.6987671985   -0.9636358596   -1.4405953446
N        2.9141284011    1.3380830471    1.3412136645
O        1.5726753823    0.1933326314    2.7781529287
H        0.5946335505    2.0339231359   -0.4706770415
H       -1.7359088615    0.8448221167   -1.1016189275
H       -0.5220367217    0.9145278588   -2.3967494575
H       -0.6954665588   -2.7187390317   -0.2796672408
H       -1.6833883415   -1.3864742717    0.3803018545
H        4.4641575421    0.9819970170    2.7197040809
H        3.1726337324    2.0617282674    3.3067623508
H        4.3470844245    2.6621458636    2.1350655091
H        2.9890087591    2.5253267797   -0.3985332015
H        3.0284921937    0.7648588196   -0.6937340589
H        4.4575867979    1.5754274482   -0.0684071781
H        0.6846308992   -1.6882113173    1.4537190744
H       -1.3825871431   -1.3484520142   -2.0833726429
24   

C        0.3791227869    0.9029099632   -0.4712735169
C        0.8691989193    0.0916738350    0.5288933241
C        1.8772197939    0.4674955574    1.5808858598
C       -0.6831442753    0.4231467639   -1.4160912167
C       -0.8406587502   -1.6197825459   -0.0106173234
C        3.7874460511    1.7632215638    2.4596563540
C        3.3736116326    1.6829086504   -0.0045027033
N        0.3620997606   -1.1978726697    0.6982819981
N       -0.7646013231   -1.0435466731   -1.3529320980
N        2.9386048628    1.3507156301    1.3472779070
O        1.7663912967   -0.0343766185    2.7085851454
H        0.7470317902    1.9129147865   -0.5864842285
H       -1.6443687233    0.8627041166   -1.1292644850
H       -0.4473199597    0.7437537698   -2.4358863678
H       -0.8746669017   -2.7118157234   -0.0751184386
H       -1.7344158660   -1.2610891488    0.5114510954
H        4.5073930607    0.9746738858    2.6999254727
H        3.1815570270    1.9761100380    3.3467271538
H        4.3313198458    2.6788197479    2.2068508712
H        2.9471922861    2.6396458042   -0.3208146235
H        3.0861116256    0.9016464161   -0.7156664106
H        4.4653156450    1.7563095855   -0.0415310757
H        0.6459245554   -1.6896083009    1.5447043719
H       -1.4912342859   -1.4131567152   -1.9563763291
24   

C        0.4532205432    0.8165078099   -0.5653891151
C        0.9112457098    0.0260376992    0.4688982998
C        1.9394109239    0.3808451097    1.5114207950
C       -0.6527001463    0.3597706259   -1.4719660394
C       -0.9458449265   -1.5710739216    0.0604651358
C        3.7736756783    1.7226993044    2.4734505100
C        3.3468049074    1.8109970556    0.0178535989
N        0.3015050358   -1.2019926460    0.7185738881
N       -0.8497243367   -1.0882868595   -1.3159409887
N        2.9311900069    1.3568734989    1.3392933059
O        1.9386489514   -0.2541581726    2.5762169747
H        0.8626134678    1.8000361337   -0.7405841286
H       -1.5737600554    0.8914248108   -1.2105373360
H       -0.4024160765    0.5945519051   -2.5115124685
H       -1.0672151827   -2.6587611941    0.0676321627
H       -1.7970112762   -1.1089416074    0.5722571135
H        4.5360025982    0.9557224456    2.6426930300
H        3.1692032642    1.8314008450    3.3801712690
H        4.2668256139    2.6826891863    2.2910585664
H        2.8495012863    2.7510213357   -0.2397912748
H        3.1293453650    1.0556689596   -0.7442879181
H        4.4293122670    1.9736842392   -0.0019699627
H        0.6013659713   -1.6923105840    1.5612630368
H       -1.6133519992   -1.4359016833   -1.8857675431
24   

C        0.5464235545    0.7128870389   -0.6609325466
C        0.9538934336   -0.0206939428    0.4376296436
C        2.0205366897    0.3049394845    1.4564972443
C       -0.6078147570    0.2737061722   -1.5156813974
C       -1.0449464600   -1.4822197434    0.1773855165
C        3.8088543532    1.6468111554    2.5005211660
C        3.2934396486    1.9810782991    0.0889492315
N        0.2337707767   -1.1556070116    0.7952473967
N       -0.9224381081   -1.1334440607   -1.2356415824
N        2.9487705162    1.3537999483    1.3570819158
O        2.1246653086   -0.4397804835    2.4431407386
H        1.0232387367    1.6352680392   -0.9480460735
H       -1.4777897466    0.9009702890   -1.2944127585
H       -0.3545054411    0.3971076979   -2.5735528161
H       -1.2518440419   -2.5517463394    0.2830243148
H       -1.8518414997   -0.9098850934    0.6478017344
H        4.6154339815    0.9097706030    2.5668337015
H        3.2302090931    1.6271477077    3.4301016668
H        4.2452536896    2.6463647807    2.4084810745
H        2.6558660551    2.8510650536   -0.0959077587
H        3.2069361188    1.2649571627   -0.7346321312
H        4.3356558729    2.3162339064    0.1016242268
H        0.5578977344   -1.6569458078    1.6229720855
H       -1.7180885114   -1.4641423231   -1.7706243911
24   

C        0.8334828381    0.5620171000   -0.6733164534
C        0.9097584525    0.2860574384    0.6754731253
C        2.1048905462    0.4530629003    1.5801136107
C       -0.3632056117    0.1558880008   -1.4783023647
C       -1.3284549491   -0.8132759396    0.5884066475
C        4.3254436607    1.3301191589    2.2064823381
C        2.9869316719    2.5088641054    0.4602525066
N       -0.1279671115   -0.3936210564    1.3070508014
N       -0.9752758115   -1.0044019344   -0.8180322111
N        3.1437036353    1.3659096199    1.3510119828
O        2.1582302384   -0.2372509251    2.6070543357
H        1.6854396221    0.9581007767   -1.2059295690
H       -1.0767582070    0.9843377684   -1.5322628166
H       -0.0528884124   -0.1095756921   -2.4943176206
H       -1.7005441351   -1.7547057303    1.0049772103
H       -2.1088178069   -0.0511787853    0.6845274885
H        5.1625465003    1.8462050579    1.7259081864
H        4.6377514401    0.2957444543    2.3853288673
H        4.1133500603    1.8099193551    3.1670575000
H        1.9342182901    2.7951202752    0.3695100116
H        3.3956585931    2.2837992910   -0.5295189325
H        3.5154696946    3.3778046751    0.8655842535
H        0.1235030619   -0.8489736381    2.1852821700
H       -1.7502556206   -1.3891879359   -1.3474264074
24   

C        0.8935922021    0.4489272169   -0.7228428275
C        0.9511232026    0.2225589343    0.6341303995
C        2.1611559364    0.3669378195    1.5172742123
C       -0.3310893860    0.0995312223   -1.5118642531
C       -1.3788172136   -0.6606556100    0.6061641429
C        4.3377011055    1.3459823062    2.1538788662
C        2.8692002395    2.5425431932    0.5200251789
N       -0.1422757083   -0.3260517206    1.3089877850
N       -1.0479779983   -0.9590192068   -0.7875639888
N        3.1267194948    1.3653726085    1.3407889227
O        2.3074322175   -0.4429251178    2.4420687848
H        1.7780747063    0.7673791332   -1.2572797769
H       -0.9679750167    0.9827382719   -1.6240873220
H       -0.0411314623   -0.2550179878   -2.5065138280
H       -1.8426157773   -1.5375922766    1.0688671781
H       -2.0799424448    0.1786962106    0.6599637206
H        5.1258612592    1.9399272926    1.6805400365
H        4.7155736025    0.3231848550    2.2563549528
H        4.1327901541    1.7521077953    3.1492876932
H        1.7961493525    2.7477299237    0.4498630064
H        3.2814674271    2.4075886967   -0.4845085049
H        3.3308140026    3.4257592042    0.9733097087
H        0.0849799220   -0.8132438975    2.1757263209
H       -1.8547610812   -1.3018609745   -1.2979784522
24   

C        0.9797491364    0.3174218232   -0.7805944723
C        1.0312674614    0.1366857259    0.5817427391
C        2.2574305897    0.2582687243    1.4441232181
C       -0.2747946315    0.0332028961   -1.5485828303
C       -1.3723115435   -0.5107300407    0.6139724546
C        4.3775312228    1.3338264321    2.1236990288
C        2.7952457362    2.5384532001    0.5995558207
N       -0.1018706154   -0.2755722777    1.2970648927
N       -1.0852879560   -0.9098320708   -0.7644694779
N        3.1454375148    1.3342104023    1.3433394522
O        2.4973590552   -0.6518936649    2.2471732873
H        1.8839885658    0.5607893627   -1.3229206632
H       -0.8283651670    0.9627066529   -1.7153162138
H       -0.0218611685   -0.4050674669   -2.5197071794
H       -1.9223974567   -1.3104776705    1.1199366089
H       -1.9810513922    0.3993290778    0.6288809554
H        5.1224371452    1.9885134315    1.6605765937
H        4.8083414343    0.3279099449    2.1662707273
H        4.1806254507    1.6808188938    3.1427627712
H        1.7097161018    2.6714057106    0.5497030203
H        3.2008358263    2.4925250058   -0.4156525484
H        3.2000137812    3.4225967259    1.1025113668
H        0.0876817176   -0.7793441306    2.1621952420
H       -1.9251048029   -1.2006753376   -1.2534794367
24   

C        1.0326968992    0.1740041235   -0.8623507321
C        1.0902957799    0.0597069192    0.5055315142
C        2.3387490393    0.1581812290    1.3406767982
C       -0.2528345382   -0.0440979328   -1.6001938970
C       -1.3641463052   -0.3375664501    0.6055271091
C        4.3864623494    1.3247481883    2.0963451768
C        2.6942052911    2.5325019646    0.6936619887
N       -0.0654517282   -0.2028933676    1.2626962066
N       -1.1415955821   -0.8478966436   -0.7478558768
N        3.1395289620    1.3037735393    1.3404713875
O        2.6758889284   -0.8240829976    2.0115199263
H        1.9465373913    0.3253968486   -1.4223877507
H       -0.7175717775    0.9200696749   -1.8296576944
H       -0.0544203431   -0.5709041261   -2.5394736444
H       -1.9903429810   -1.0408168459    1.1636396800
H       -1.8704036653    0.6327253397    0.5698939408
H        5.0809821900    2.0521549851    1.6645234227
H        4.8774983109    0.3464844364    2.0646256767
H        4.1919028447    1.5919691699    3.1395951136
H        1.6016164553    2.5868717627    0.6515919448
H        3.0961519383    2.5960291228   -0.3220543521
H        3.0331588520    3.4026377323    1.2649265792
H        0.0811676537   -0.6942499126    2.1419714714
H       -2.0135747491   -1.0835093790   -1.2095976093
24   

C        1.1136447272    0.0014441700   -0.9282065420
C        1.2061771978   -0.0042587318    0.4414424750
C        2.4897199671    0.0856591881    1.2286670509
C       -0.2072583475   -0.1758906075   -1.6125720903
C       -1.2684330838   -0.1804045409    0.6379346020
C        4.4378201061    1.3493094027    2.0934340180
C        2.6200337887    2.5371452089    0.8384320964
N        0.0569163519   -0.1177305528    1.2513642886
N       -1.1346536636   -0.8210320016   -0.6706719077
N        3.1788079323    1.2945572236    1.3593332523
O        2.9405758024   -0.9359865549    1.7568533046
H        2.0185194511    0.0445245142   -1.5208630328
H       -0.5982550380    0.7991595220   -1.9204539424
H       -0.0805774874   -0.7998643351   -2.5034749260
H       -1.9406195479   -0.7714171847    1.2680253526
H       -1.6822527930    0.8277376081    0.5306376984
H        5.0696253766    2.1535694958    1.7036814173
H        4.9971808202    0.4144089229    1.9839639407
H        4.2476582994    1.5273723801    3.1563092813
H        1.5274659628    2.4961257071    0.7865030085
H        3.0172342851    2.7435315200   -0.1600352620
H        2.8740403946    3.3702857163    1.5014066064
H        0.1820308882   -0.5584261010    2.1593068148
H       -2.0377886682   -1.0163222770   -1.0893946715
24   

C        1.1200977736   -0.1969924907   -1.0062755374
C        1.2612317145   -0.0472146695    0.3506390832
C        2.5810579282    0.0450680418    1.0808868911
C       -0.2320816466   -0.3628234427   -1.6296001272
C       -1.2123757722   -0.0390137123    0.6343244580
C        4.4337955076    1.3723165518    2.0675434303
C        2.4900136651    2.5251147846    0.9746061610
N        0.1335388426   -0.0175343011    1.2036228181
N       -1.1693960789   -0.8287608911   -0.5960476680
N        3.1519327056    1.2875419537    1.3745034089
O        3.1457933313   -0.9871518958    1.4546248944
H        2.0050897480   -0.2781224448   -1.6246305819
H       -0.5683091181    0.5948532652   -2.0400168144
H       -0.1762389518   -1.0919574911   -2.4446125038
H       -1.9073739355   -0.5009351888    1.3426228233
H       -1.5497842622    0.9814659947    0.4245083013
H        5.0183592906    2.2160886569    1.6881775875
H        5.0329137442    0.4695642656    1.9108961752
H        4.2713489909    1.5047004679    3.1416230894
H        1.9200826501    2.3959440237    0.0495939075
H        3.2277528750    3.3113920672    0.7873153143
H        1.8112515776    2.8599315972    1.7653261682
H        0.2549917863   -0.3707454367    2.1487032675
H       -2.0978410987   -1.0000822460   -0.9672541287
24   

C        1.1355443706   -0.3691510008   -1.0444349653
C        1.3283708612   -0.0800351267    0.2831999303
C        2.6825793926    0.0264942361    0.9474206146
C       -0.2403055459   -0.5430272585   -1.6107617594
C       -1.1359789466    0.0540845790    0.6307828860
C        4.4292994495    1.3674836077    2.1090186134
C        2.3914993549    2.4829530270    1.1720624703
N        0.2256671295    0.0643175537    1.1612096890
N       -1.1644502015   -0.8587348580   -0.5108126282
N        3.1519571043    1.2611114726    1.4105047285
O        3.3604047149   -0.9866916971    1.1418565748
H        1.9973430906   -0.5494558183   -1.6748079593
H       -0.5506894350    0.3803258858   -2.1106793808
H       -0.2374700432   -1.3539469623   -2.3465028548
H       -1.8314612151   -0.2972060969    1.3995050518
H       -1.4297466915    1.0636116779    0.3243360398
H        5.2006800859    1.7406426442    1.4284855948
H        4.7546440963    0.4021763276    2.5094886436
H        4.3364491621    2.0534533145    2.9567517764
H        1.8590361756    2.4392859235    0.2166405016
H        3.0633298234    3.3457914149    1.1255501862
H        1.6676086179    2.6416327698    1.9774336754
H        0.3583849299   -0.1945464946    2.1343159718
H       -2.1100564946   -1.0222359225   -0.8398582718
24   

C        1.3040202263   -0.4825959655   -1.0204394959
C        1.5110209859   -0.0723983829    0.2735759628
C        2.8831141389    0.1112131348    0.8796423121
C       -0.0723304882   -0.7423718626   -1.5508532154
C       -0.9562264484    0.0205792308    0.6404288156
C        4.5438909640    1.4398251583    2.1533337836
C        2.4012413249    2.4992706944    1.4039716647
N        0.4105884925    0.1039490798    1.1504319728
N       -0.9742409871   -0.9885842485   -0.4159023220
N        3.2452390045    1.3127727881    1.5010549013
O        3.6976910643   -0.8163375132    0.8703464555
H        2.1625820284   -0.6941777238   -1.6459805113
H       -0.4144699336    0.1263459470   -2.1228682654
H       -0.0543603360   -1.6122567386   -2.2155767739
H       -1.6359501900   -0.2770083724    1.4450581921
H       -1.2748129057    0.9931873317    0.2506212951
H        5.3104991421    1.7081065738    1.4198912742
H        4.8293675218    0.5020709078    2.6412484340
H        4.5060142570    2.2115189188    2.9285928241
H        1.7786500217    2.4743097643    0.5040076694
H        3.0210524010    3.3988449574    1.3355187188
H        1.7543020772    2.5792521191    2.2827862989
H        0.5588691373   -0.0575242367    2.1417203246
H       -1.9188610808   -1.2016200383   -0.7183390585
24   

C       -0.1382186991    0.5984133560    0.7060412894
C        1.2057588728    0.4101298231    0.4873261585
C        2.2644390786    1.1339570470    1.2817625756
C       -1.1796812629   -0.0537842139   -0.1498382948
C        0.6628396004   -1.2099722978   -1.3377075575
C        4.4729004436    1.2747280821    2.3846626637
C        3.5696129058   -0.9547138456    1.6978492491
N        1.6310827222   -0.4164764492   -0.5841634116
N       -0.5664886017   -0.4279820881   -1.4321543915
N        3.4385241385    0.4987395124    1.7092088430
O        2.1146075007    2.3249142941    1.5702844548
H       -0.4482940977    1.2969463805    1.4740190062
H       -1.5657837632   -0.9437967845    0.3578541453
H       -2.0099611571    0.6405437703   -0.3154496948
H        1.0484400702   -1.4125481522   -2.3418349335
H        0.4770925969   -2.1630357843   -0.8311284202
H        4.1751275866    1.4842506549    3.4168442134
H        4.6439628406    2.2219891586    1.8625128572
H        5.4204126890    0.7268654905    2.3920741925
H        4.0731716995   -1.2938564422    2.6086193202
H        4.1495396598   -1.2795983223    0.8290019551
H        2.5912320730   -1.4449151714    1.6801238724
H        2.5207875616   -0.2079469860   -1.0257857630
H       -1.2364396935   -0.8528103301   -2.0644767303
24   

C       -0.2053397876    0.6207387552    0.5678563381
C        1.1394761991    0.3586140981    0.4373379877
C        2.1743083608    1.0792362928    1.2626124855
C       -1.2345231687   -0.0312288476   -0.3027308089
C        0.5982899611   -1.3615608355   -1.2988915841
C        4.4187870164    1.3409749515    2.2606458009
C        3.6502763304   -0.9222962660    1.5394037923
N        1.5679688609   -0.5630823864   -0.5527018493
N       -0.5758953912   -0.5239725736   -1.5201695558
N        3.4184390613    0.5175281997    1.5889112648
O        1.9348004482    2.2105146512    1.6951487951
H       -0.5234832138    1.3748992514    1.2780466965
H       -1.6978825968   -0.8625208583    0.2387662298
H       -2.0135410072    0.6937564046   -0.5604369304
H        1.0242234391   -1.6608353184   -2.2617015293
H        0.3318376722   -2.2614171488   -0.7343099311
H        4.1471870278    1.4854759575    3.3110947966
H        4.4971403203    2.3190058681    1.7741728882
H        5.4042854339    0.8675290309    2.2094246391
H        4.2505260179   -1.2367710306    2.3990533302
H        4.1780789646   -1.1951064470    0.6209135717
H        2.7092216277   -1.4782129496    1.5973504728
H        2.4872438195   -0.4312319658   -0.9613756772
H       -1.2343703027   -0.9584160441   -2.1579961210
24   

C       -0.2087953688    0.7010950855    0.5528118027
C        1.1217869391    0.3453356131    0.5089160721
C        2.1446417033    1.0133686579    1.3920490474
C       -1.2333237970    0.0956872935   -0.3560510403
C        0.5418500542   -1.4087652250   -1.1845694509
C        4.4113176401    1.3430239065    2.3127767782
C        3.7584621082   -0.9056670784    1.4619592562
N        1.5279672549   -0.6479666741   -0.4211244648
N       -0.5465440847   -0.4949233731   -1.5122511376
N        3.4381030796    0.5096990366    1.6124547957
O        1.8489117084    2.0521185234    1.9901319308
H       -0.5180810492    1.4922498133    1.2257991977
H       -1.7919329556   -0.6748484135    0.1854521276
H       -1.9362731577    0.8673876463   -0.6865413602
H        0.9952399069   -1.7878249140   -2.1058351473
H        0.1744212738   -2.2558021206   -0.5954537338
H        4.1788047933    1.3810148420    3.3817333789
H        4.4014015382    2.3610606770    1.9090907031
H        5.4232311303    0.9470325233    2.1816082625
H        4.4506954807   -1.2213205292    2.2490179227
H        4.2228518150   -1.0946654204    0.4897582123
H        2.8638725512   -1.5266741993    1.5713864312
H        2.4700039265   -0.5931421308   -0.7927402474
H       -1.2000080043   -0.9076150837   -2.1694057175
24   

C       -0.1970210749    0.7507450189    0.4813339845
C        1.1042245176    0.2970928691    0.5409100342
C        2.1042574706    0.9249758844    1.4829106116
C       -1.2104755451    0.1805017763   -0.4623434220
C        0.4715609449   -1.5172901071   -1.0725699610
C        4.3610128786    1.3475594066    2.3893571090
C        3.8835273768   -0.8491307884    1.3236087603
N        1.4769265405   -0.7813416147   -0.3107451806
N       -0.5091221611   -0.5412805954   -1.5316784190
N        3.4395215430    0.5056949866    1.6300610600
O        1.7487609024    1.8587199194    2.2082778835
H       -0.4903722880    1.5898013276    1.1013612459
H       -1.8716842311   -0.5014943067    0.0823785664
H       -1.8169754335    0.9880416872   -0.8853170404
H        0.9388803663   -2.0051461338   -1.9336999730
H       -0.0010262609   -2.2805024459   -0.4450393428
H        4.1633299858    1.2551638756    3.4619885243
H        4.2492456693    2.3966014296    2.0951130420
H        5.3987138128    1.0611872897    2.1914837733
H        4.6862702387   -1.1470913246    2.0056436116
H        4.2587458975   -0.9103471277    0.2979364353
H        3.0742461323   -1.5705150490    1.4728284618
H        2.4314867054   -0.8105837344   -0.6494971324
H       -1.1566292103   -0.9448636604   -2.2003217948
