42

C      0.63535   -2.23622    2.80811
C     -0.94287    1.73775   -1.97060
C      0.04442    0.72945   -1.85949
C     -1.33953    2.52828   -0.88645
C      0.30790    1.30642    0.43337
C      0.67910    0.49159   -0.64001
C      0.78471    1.26390    1.77780
C     -0.69395    2.29629    0.33481
C      0.07518    2.20740    2.48639
C     -0.96121   -2.31658   -1.83003
C      1.89753    0.31459    2.10320
C      1.44047   -1.90936   -1.09800
C     -0.42703   -2.02296    0.64805
C      1.70875   -0.59444   -0.34749
C      0.06718   -2.52218   -0.72481
C      1.83227   -0.91798    1.17049
C      0.14077    2.60178    3.92596
C     -3.24573   -1.97108   -2.32485
N      0.58490   -2.59319    3.92396
N     -0.81665    2.83953    1.60546
N      0.72476   -1.83567    1.54487
O     -0.70600   -2.31357   -3.01976
O     -2.21339   -2.18837   -1.33996
H     -1.41804    1.89533   -2.93544
H      0.28025    0.13512   -2.73635
H     -2.11564    3.28099   -1.00055
H      2.87279    0.79528    1.94447
H      1.88028   -0.02226    3.14445
H      1.49014   -1.76589   -2.17865
H      2.23372   -2.61741   -0.83834
H     -0.98237   -1.08880    0.54713
H     -1.09344   -2.75234    1.10813
H      2.69565   -0.22652   -0.65548
H      0.19192   -3.61035   -0.66673
H      2.76356   -1.48284    1.29747
H      0.50224    3.63005    4.05128
H     -0.84150    2.53231    4.40867
H      0.82151    1.93910    4.46460
H     -4.17488   -1.89993   -1.75987
H     -3.28238   -2.80425   -3.03001
H     -3.05197   -1.04291   -2.86710
H     -1.47564    3.55487    1.87819
