24   

C       -0.6266502172    1.2028809852   -0.0577434967
C        0.5635715259    0.6605188954    0.3739303750
C        1.5239331323    1.4391078584    1.2314323659
C       -1.5719741919    0.4568074181   -0.9496915245
C       -0.1021151444   -1.5102842608   -0.6668516146
C        3.6711414061    1.7676147600    2.4032454010
C        3.6130881968    0.3968789248    0.3270210573
N        0.8921958352   -0.6570094359   -0.0218197457
N       -0.8539483120   -0.6587721091   -1.5823057026
N        2.8787597433    1.0942235122    1.3782649912
O        1.1567470494    2.4617990752    1.8123676603
H       -0.8634848058    2.2256447332    0.2111901835
H       -2.4086410879    0.0769283137   -0.3542689898
H       -1.9692508762    1.1316262974   -1.7149571345
H        0.3943132928   -2.3101965393   -1.2249864141
H       -0.7686140818   -1.9526107757    0.0815567361
H        4.6112730303    1.2340831990    2.5750961351
H        3.1254834791    1.7894597415    3.3525182756
H        3.8944052835    2.7945127429    2.0967119543
H        4.6047214532    0.8432753686    0.2010446896
H        3.1076077626    0.4924985046   -0.6395132546
H        3.7341835044   -0.6611190849    0.5771702426
H        1.7502045673   -1.0796824124    0.3129339196
H       -1.4588530204   -1.2016574598   -2.1891489733
24   

C       -0.5837062227    1.1872411054   -0.0963864730
C        0.5506660577    0.6066449144    0.4227074343
C        1.4836639374    1.3522963927    1.3368038258
C       -1.5004125380    0.4544274532   -1.0285297497
C       -0.1435238269   -1.5662041968   -0.5864168153
C        3.6792718463    1.7440066676    2.3984602553
C        3.5597473554    0.4759728961    0.2530450421
N        0.8437611481   -0.7366878973    0.0991048189
N       -0.7935591511   -0.7127986814   -1.5762689471
N        2.8633409819    1.0953341301    1.3769329846
O        1.0593535571    2.2477287168    2.0704236607
H       -0.7932768540    2.2242336796    0.1379843104
H       -2.3919497135    0.1318565579   -0.4808151193
H       -1.8135855059    1.1200996598   -1.8394628685
H        0.3516742448   -2.4050533866   -1.0853424992
H       -0.8777988056   -1.9541224546    0.1279834570
H        4.6608184086    1.2647088013    2.4681731838
H        3.1998815256    1.6598232728    3.3794563153
H        3.8163594784    2.8030096423    2.1577902403
H        4.5067401475    0.9925128124    0.0667526759
H        2.9764934447    0.5554984604   -0.6701503046
H        3.7678655490   -0.5773509585    0.4623108045
H        1.6624177714   -1.1813395442    0.4995114883
H       -1.3819599432   -1.2493977124   -2.2046053416
24   

C       -0.5322689589    1.1806805329   -0.1305681206
C        0.5351287807    0.5561018168    0.4694374941
C        1.4516438287    1.2601362917    1.4344762790
C       -1.4249231557    0.4668982096   -1.1002477587
C       -0.2018481750   -1.6070999776   -0.5226982216
C        3.6835138453    1.7175068887    2.3953838970
C        3.4983037546    0.5576454830    0.1876911477
N        0.7783466581   -0.8100112868    0.2099143187
N       -0.7435632991   -0.7482226541   -1.5725872655
N        2.8433800029    1.1009216094    1.3744506056
O        0.9954407656    2.0015302817    2.3081198512
H       -0.7030590474    2.2315092359    0.0700669738
H       -2.3635225540    0.2026835327   -0.6021033307
H       -1.6538671945    1.1236003509   -1.9458919234
H        0.2827561110   -2.4808585994   -0.9693897429
H       -0.9995858370   -1.9417731899    0.1493224461
H        4.6861293690    1.2786065885    2.3833713938
H        3.2616063925    1.5493750142    3.3918176792
H        3.7645274133    2.7946332502    2.2185997001
H        4.3952362342    1.1399465365   -0.0459817494
H        2.8497264184    0.6170813872   -0.6923321380
H        3.7854298641   -0.4850953951    0.3517800941
H        1.5503663003   -1.2806969970    0.6698518419
H       -1.3170986967   -1.2725909693   -2.2246024003
24   

C       -0.3973505232    1.1799696114   -0.0983907154
C        0.5973904712    0.5102105026    0.5713560688
C        1.5252271129    1.1715821667    1.5594084122
C       -1.2848846061    0.4847779670   -1.0862918630
C       -0.2107365404   -1.6371638710   -0.3898792733
C        3.7978065270    1.7154788006    2.3807184456
C        3.5029081983    0.6642222299    0.1268932663
N        0.7736027556   -0.8744890383    0.3732151711
N       -0.6512673602   -0.7807178064   -1.4892361328
N        2.9135208165    1.1299605347    1.3793669270
O        1.0793556222    1.7413016975    2.5588715580
H       -0.5108550240    2.2455158334    0.0588797696
H       -2.2579684739    0.2880978742   -0.6243498059
H       -1.4388819949    1.1247516680   -1.9612141733
H        0.2467854727   -2.5481654149   -0.7881283637
H       -1.0587800785   -1.9093464387    0.2478715306
H        4.7995304556    1.2809023508    2.3053266467
H        3.4281779751    1.5128706212    3.3913058784
H        3.8674006029    2.7980779588    2.2361616071
H        4.3447771612    1.3052387344   -0.1530846256
H        2.7864573581    0.7082372370   -0.6996392304
H        3.8591981448   -0.3647622514    0.2323939916
H        1.4936353610   -1.3719542822    0.8868173004
H       -1.2214770719   -1.2928342577   -2.1538334723
24   

C       -0.3433198706    1.1944514687   -0.1754034139
C        0.5423535814    0.4744974475    0.5876943028
C        1.4425935155    1.0764774920    1.6407896329
C       -1.1877474364    0.5324185676   -1.2222176548
C       -0.2965350650   -1.6374325667   -0.4152786759
C        3.6977991420    1.7447590401    2.4393462159
C        3.3985933626    0.8547441199    0.1166269414
N        0.6595581958   -0.9197631946    0.4234904522
N       -0.5961481815   -0.7731919382   -1.5564048417
N        2.8178268451    1.1988965412    1.4115541064
O        0.9821644344    1.4307930642    2.7300846279
H       -0.3992512218    2.2682650162   -0.0479476324
H       -2.2037593294    0.3972317063   -0.8368285843
H       -1.2361609297    1.1645157184   -2.1148646085
H        0.1426634699   -2.5767819983   -0.7654214108
H       -1.2090546109   -1.8556500309    0.1501275055
H        4.6843633558    1.2746060755    2.3799106842
H        3.3066596752    1.5502621082    3.4431503812
H        3.8083097513    2.8252392546    2.3056651069
H        4.2101089147    1.5471311115   -0.1281853519
H        2.6642627479    0.9302749133   -0.6915596518
H        3.7956398287   -0.1646683784    0.1378601317
H        1.2884588175   -1.4485571770    1.0194397407
H       -1.1378627958   -1.2636011204   -2.2600873776
24   

C       -0.2040953683    1.2081129138   -0.2401005426
C        0.5522816298    0.4229041400    0.5941232054
C        1.4628698054    0.9444369718    1.6808367798
C       -1.0528597585    0.6019961560   -1.3168781095
C       -0.4132942465   -1.6233784177   -0.4206804234
C        3.6836175926    1.7564210597    2.4460489056
C        3.3399067536    1.0800666916    0.0567830743
N        0.5570680834   -0.9771255633    0.4585257479
N       -0.5713649694   -0.7613561728   -1.5923397301
N        2.7981004036    1.2529646556    1.4013436217
O        1.0346027847    1.0868141815    2.8307007552
H       -0.1551773179    2.2853494683   -0.1441125508
H       -2.0952516252    0.5714809592   -0.9825683544
H       -0.9967548741    1.2132693419   -2.2234026109
H       -0.0432777665   -2.6060357653   -0.7294936700
H       -1.3711330430   -1.7460227987    0.0965546769
H        4.2644598233    0.9346593283    2.8758086522
H        3.1206834348    2.2470297568    3.2465239400
H        4.3701224752    2.5011505540    2.0312979429
H        3.2136363613    1.9990258813   -0.5238385017
H        2.8529666858    0.2557437091   -0.4735698517
H        4.4059219633    0.8374134054    0.1078650255
H        1.0676037545   -1.5433997963    1.1293559374
H       -1.1196769237   -1.2167183804   -2.3142266723
24   

C       -0.0344710143    1.1982773489   -0.2747239451
C        0.6058837515    0.3650198598    0.6095581290
C        1.5434420256    0.8131615410    1.7034987796
C       -0.9245248835    0.6503371957   -1.3493824625
C       -0.5491455021   -1.5987748803   -0.3633448661
C        3.6994744604    1.7720472662    2.4647462924
C        3.3263063858    1.2684516918    0.0350056107
N        0.4682066654   -1.0294209141    0.5154659498
N       -0.5929217741   -0.7668526254   -1.5666465941
N        2.8190953779    1.2983706063    1.4029828470
O        1.1720612201    0.7613147259    2.8814887559
H        0.1317245711    2.2663205051   -0.2155498714
H       -1.9698954470    0.7469381583   -1.0374544140
H       -0.7846939709    1.2181475584   -2.2748640693
H       -0.2809882140   -2.6255458604   -0.6311588019
H       -1.5238505412   -1.6004337666    0.1366614297
H        4.2935348382    0.9427649653    2.8608431421
H        3.1242148978    2.2197802348    3.2817211857
H        4.3740664583    2.5440030190    2.0813759121
H        3.1084461819    2.2130654766   -0.4725296651
H        2.8857144645    0.4457150697   -0.5376636914
H        4.4090854610    1.1082846874    0.0374340672
H        0.8677645715   -1.6114737402    1.2463488624
H       -1.1754896313   -1.1862672570   -2.2834269956
24   

C        0.1730806297    1.0860929282   -0.3130460838
C        0.7567213743    0.2566022718    0.6147046717
C        1.7321722618    0.6823427529    1.6804015370
C       -0.7863990790    0.5533361324   -1.3346038819
C       -0.5964162432   -1.6498518289   -0.2000740566
C        3.8049112302    1.8118373092    2.4265316173
C        3.3852417751    1.4351360777   -0.0171613185
N        0.4925131938   -1.1199295279    0.6146648935
N       -0.5971425835   -0.9005028084   -1.4573251781
N        2.9265744166    1.3360473796    1.3642071568
O        1.4479138240    0.4733786721    2.8664909325
H        0.4238470145    2.1389862490   -0.3216240877
H       -1.8111283369    0.7713558079   -1.0153803197
H       -0.6129143862    1.0405061495   -2.2994687424
H       -0.4308506599   -2.7128725903   -0.4012012888
H       -1.5528137595   -1.5267646024    0.3197597175
H        4.4605573649    1.0038789210    2.7655534273
H        3.2224276042    2.1794986439    3.2777688085
H        4.4189465017    2.6439136157    2.0679362264
H        3.0759889003    2.3892027981   -0.4546018100
H        2.9909755153    0.6160027847   -0.6276113353
H        4.4767764467    1.3633131307   -0.0579507311
H        0.8302194516   -1.6689174742    1.4014294323
H       -1.2352187478   -1.3110826249   -2.1305655364
24   

C        0.2720962340    1.0026869844   -0.4147271183
C        0.7942941743    0.1715959400    0.5497278587
C        1.7845463329    0.5591953379    1.6139188715
C       -0.7394050804    0.5062054481   -1.4045738219
C       -0.7525068667   -1.6345663242   -0.1412003440
C        3.7720247663    1.7803096095    2.4345401147
C        3.3636546701    1.5665818677   -0.0274703704
N        0.3964612129   -1.1677687956    0.6274483651
N       -0.6987712310   -0.9636333953   -1.4405931401
N        2.9141319850    1.3380771852    1.3412120666
O        1.5726753823    0.1933326314    2.7781529287
H        0.5946284413    2.0339252739   -0.4706718239
H       -1.7359138446    0.8448232311   -1.1016121468
H       -0.5220439455    0.9145319111   -2.3967446348
H       -0.6954669210   -2.7187384088   -0.2796678673
H       -1.6833886228   -1.3864755535    0.3803051913
H        4.4641631914    0.9819888587    2.7196996043
H        3.1726413648    2.0617208188    3.3067608731
H        4.3470903787    2.6621382682    2.1350624231
H        2.9890093162    2.5253223090   -0.3985339178
H        3.0284909524    0.7648545654   -0.6937363137
H        4.4575874838    1.5754218075   -0.0684118401
H        0.6846317857   -1.6882115622    1.4537186091
H       -1.3825919095   -1.3484491928   -2.0833698725
24   

C        0.3791194669    0.9029118898   -0.4712702660
C        0.8691989193    0.0916738350    0.5288933241
C        1.8772197939    0.4674955574    1.5808858598
C       -0.6831487997    0.4231495702   -1.4160870723
C       -0.8406596371   -1.6197820882   -0.0106161414
C        3.7874518216    1.7632155166    2.4596530144
C        3.3736121638    1.6829045346   -0.0045054970
N        0.3620997606   -1.1978726697    0.6982819981
N       -0.7646047877   -1.0435440319   -1.3529301386
N        2.9386083047    1.3507108775    1.3472758680
O        1.7663912967   -0.0343766185    2.7085851454
H        0.7470274935    1.9129172859   -0.5864792999
H       -1.6443730821    0.8627058713   -1.1292582102
H       -0.4473261894    0.7437582664   -2.4358820895
H       -0.8746672328   -2.7118151805   -0.0751189743
H       -1.7344161442   -1.2610900713    0.5114542638
H        4.5073983528    0.9746669893    2.6999207192
H        3.1815645576    1.9761044632    3.3467249145
H        4.3313261220    2.6788132318    2.2068469142
H        2.9471927608    2.6396422248   -0.3208157332
H        3.0861098794    0.9016430171   -0.7156690652
H        4.4653161400    1.7563047344   -0.0415362983
H        0.6459252579   -1.6896085538    1.5447039887
H       -1.4912383837   -1.4131536703   -1.9563738537
24   

C        0.4532180558    0.8165096671   -0.5653865602
C        0.9112457098    0.0260376992    0.4688982998
C        1.9394109239    0.3808451097    1.5114207950
C       -0.6527033387    0.3597732639   -1.4719630234
C       -0.9458456571   -1.5710733250    0.0604661216
C        3.7736803033    1.7226953707    2.4734473744
C        3.3468055091    1.8109939529    0.0178509913
N        0.3015050358   -1.2019926460    0.7185738881
N       -0.8497268650   -1.0882844895   -1.3159395187
N        2.9311927443    1.3568703338    1.3392913361
O        1.9386489514   -0.2541581726    2.5762169747
H        0.8626101113    1.8000386773   -0.7405799308
H       -1.5737631839    0.8914268586   -1.2105329196
H       -0.4024202036    0.5945557942   -2.5115094012
H       -1.0672156746   -2.6587606341    0.0676318769
H       -1.7970115044   -1.1089418430    0.5722596907
H        4.5360067005    0.9557177947    2.6426889416
H        3.1692092285    1.8313975874    3.3801689518
H        4.2668308491    2.6826848124    2.2910547369
H        2.8495024452    2.7510189046   -0.2397925088
H        3.1293435674    1.0556664398   -0.7442904037
H        4.4293130062    1.9736799462   -0.0019745987
H        0.6013663366   -1.6923107343    1.5612628201
H       -1.6133549494   -1.4358989642   -1.8857657231
24   

C        0.5464224344    0.7128880877   -0.6609314278
C        0.9538934336   -0.0206939428    0.4376296436
C        2.0205366897    0.3049394845    1.4564972443
C       -0.6078161637    0.2737075708   -1.5156800845
C       -1.0449468391   -1.4822193391    0.1773860683
C        3.8088560600    1.6468099999    2.5005197547
C        3.2934403729    1.9810767243    0.0889479138
N        0.2337707767   -1.1556070116    0.7952473967
N       -0.9224392742   -1.1334428466   -1.2356408976
N        2.9487715970    1.3537988881    1.3570809595
O        2.1246653086   -0.4397804835    2.4431407386
H        1.0232370705    1.6352696428   -0.9480441293
H       -1.4777911308    0.9009714893   -1.2944108162
H       -0.3545072335    0.3971096440   -2.5735515347
H       -1.2518444050   -2.5517459890    0.2830243717
H       -1.8518415839   -0.9098849124    0.6478030594
H        4.6154354231    0.9097691446    2.5668320986
H        3.2302112030    1.6271469909    3.4301005180
H        4.2452557225    2.6463634460    2.4084792530
H        2.6558676738    2.8510642426   -0.0959085683
H        3.2069352086    1.2649556679   -0.7346333441
H        4.3356570142    2.3162310689    0.1016220008
H        0.5578979293   -1.6569459566    1.6229719188
H       -1.7180898953   -1.4641409091   -1.7706235084
24   

C        0.8334847869    0.5620133307   -0.6733173047
C        0.9097584525    0.2860574384    0.6754731253
C        2.1048905462    0.4530629003    1.5801136107
C       -0.3632030013    0.1558831559   -1.4783036120
C       -1.3284544004   -0.8132769321    0.5884063183
C        4.3254407809    1.3301245743    2.2064852634
C        2.9869283760    2.5088659585    0.4602530695
N       -0.1279671115   -0.3936210564    1.3070508014
N       -0.9752741125   -1.0044054168   -0.8180319257
N        3.1437012159    1.3659128866    1.3510141858
O        2.1582302384   -0.2372509251    2.6070543357
H        1.6854425796    0.9580952914   -1.2059301325
H       -1.0767553082    0.9843330511   -1.5322661347
H       -0.0528849686   -0.1095823624   -2.4943181332
H       -1.7005441156   -1.7547059423    1.0049781664
H       -2.1088172094   -0.0511794799    0.6845252367
H        5.1625433230    1.8462109101    1.7259110650
H        4.6377497153    0.2957504067    2.3853329305
H        4.1133461185    1.8099254021    3.1670598614
H        1.9342146380    2.7951203246    0.3695090825
H        3.3956566818    2.2838004805   -0.5295176499
H        3.5154646716    3.3778078446    0.8655842447
H        0.1235028960   -0.8489730774    2.1852825096
H       -1.7502536414   -1.3891920038   -1.3474261061
24   

C        0.8935941627    0.4489224533   -0.7228436590
C        0.9511232026    0.2225589343    0.6341303995
C        2.1611559364    0.3669378195    1.5172742123
C       -0.3310867389    0.0995249102   -1.5118654255
C       -1.3788166001   -0.6606570708    0.6061637833
C        4.3376969520    1.3459886291    2.1538836466
C        2.8691959959    2.5425452495    0.5200265255
N       -0.1422757083   -0.3260517206    1.3089877850
N       -1.0479761739   -0.9590237581   -0.7875634085
N        3.1267161101    1.3653764419    1.3407925000
O        2.3074322175   -0.4429251178    2.4420687848
H        1.7780775779    0.7673724704   -1.2572802806
H       -0.9679721167    0.9827318438   -1.6240909450
H       -0.0411280357   -0.2550264767   -2.5065139929
H       -1.8426156127   -1.5375927032    1.0688683330
H       -2.0799418461    0.1786948933    0.6599609635
H        5.1258566794    1.9399343792    1.6805450592
H        4.7155709848    0.3231918479    2.2563608671
H        4.1327844451    1.7521145288    3.1492919737
H        1.7961448800    2.7477302773    0.4498629488
H        3.2814643507    2.4075895951   -0.4845065269
H        3.3308081280    3.4257626479    0.9733100085
H        0.0849798160   -0.8132430701    2.1757268145
H       -1.8547589076   -1.3018664286   -1.2979778219
24   

C        0.9797507960    0.3174164790   -0.7805951970
C        1.0312674614    0.1366857259    0.5817427391
C        2.2574305897    0.2582687243    1.4441232181
C       -0.2747923955    0.0331957602   -1.5485838010
C       -1.3723110495   -0.5107315748    0.6139720814
C        4.3775263040    1.3338324064    2.1237052380
C        2.7952409520    2.5384552963    0.5995584604
N       -0.1018706154   -0.2755722777    1.2970648927
N       -1.0852864413   -0.9098370802   -0.7644686424
N        3.1454335136    1.3342140754    1.3433442157
O        2.4973590552   -0.6518936649    2.2471732873
H        1.8839909415    0.5607818906   -1.3229211623
H       -0.8283626692    0.9626992039   -1.7153198670
H       -0.0218583011   -0.4050770104   -2.5197068952
H       -1.9223974589   -1.3104778757    1.1199377975
H       -1.9810508039    0.3993276562    0.6288778961
H        5.1224318398    1.9885200849    1.6605831379
H        4.8083380087    0.3279165994    2.1662781051
H        4.1806189005    1.6808252474    3.1427685194
H        1.7097111835    2.6714060888    0.5497040632
H        3.2008324326    2.4925262192   -0.4156493229
H        3.2000071153    3.4226000931    1.1025132810
H        0.0876816709   -0.7793431913    2.1621957981
H       -1.9251029869   -1.2006813677   -1.2534785134
24   

C        1.0326979656    0.1739988124   -0.8623511800
C        1.0902957799    0.0597069192    0.5055315142
C        2.3387490393    0.1581812290    1.3406767982
C       -0.2528331249   -0.0441049683   -1.6001943920
C       -1.3641459644   -0.3375682636    0.6055268384
C        4.3864575381    1.3247523889    2.0963520136
C        2.6942008307    2.5325037408    0.6936660907
N       -0.0654517282   -0.2028933676    1.2626962066
N       -1.1415945332   -0.8479016454   -0.7478548409
N        3.1395250937    1.3037761985    1.3404767055
O        2.6758889284   -0.8240829976    2.0115199263
H        1.9465388970    0.3253892633   -1.4223880954
H       -0.7175702440    0.9200621474   -1.8296605479
H       -0.0544185648   -0.5709132583   -2.5394728812
H       -1.9903427499   -1.0408174580    1.1636407948
H       -1.8704035150    0.6327233406    0.5698911982
H        5.0809770679    2.0521598656    1.6645308988
H        4.8774947742    0.3464892438    2.0646332398
H        4.1918965112    1.5919732766    3.1396016758
H        1.6016119886    2.5868721064    0.6515944411
H        3.0961489096    2.5960308908   -0.3220496950
H        3.0331525466    3.4026401895    1.2649307367
H        0.0811677525   -0.6942487865    2.1419720825
H       -2.0135734880   -1.0835154220   -1.2095964378
24   

C        1.1136451209    0.0014404655   -0.9282065634
C        1.2061771978   -0.0042587318    0.4414424750
C        2.4897199671    0.0856591881    1.2286670509
C       -0.2072578154   -0.1758955784   -1.6125720134
C       -1.2684329701   -0.1804057217    0.6379345116
C        4.4378171349    1.3493109720    2.0934386752
C        2.6200310385    2.5371458639    0.8384354880
N        0.0569163519   -0.1177305528    1.2513642886
N       -1.1346532509   -0.8210354032   -0.6706708817
N        3.1788055625    1.2945581728    1.3593369064
O        2.9405758024   -0.9359865549    1.7568533046
H        2.0185200066    0.0445191844   -1.5208629232
H       -0.5982545003    0.7991540295   -1.9204555460
H       -0.0805767835   -0.7998707573   -2.5034738047
H       -1.9406194706   -0.7714173637    1.2680261611
H       -1.6822527678    0.8277362061    0.5306358530
H        5.0696225093    2.1535710481    1.7036861933
H        4.9971782653    0.4144106396    1.9839694429
H        4.2476544445    1.5273743141    3.1563137112
H        1.5274632457    2.4961258395    0.7865061472
H        3.0172317063    2.7435322530   -0.1600317927
H        2.8740371500    3.3702865575    1.5014099506
H        0.1820310278   -0.5584252277    2.1593072179
H       -2.0377881828   -1.0163263392   -1.0893934920
24   

C        1.1200977404   -0.1969916061   -1.0062756339
C        1.2612317145   -0.0472146695    0.3506390832
C        2.5810579282    0.0450680418    1.0808868911
C       -0.2320816981   -0.3628221921   -1.6296002887
C       -1.2123757847   -0.0390133940    0.6343244703
C        4.4337961802    1.3723164493    2.0675422769
C        2.4900142036    2.5251148296    0.9746054633
N        0.1335388426   -0.0175343011    1.2036228181
N       -1.1693961762   -0.8287599966   -0.5960480311
N        3.1519332105    1.2875419255    1.3745025635
O        3.1457933313   -0.9871518958    1.4546248944
H        2.0050896984   -0.2781212197   -1.6246307438
H       -0.5683090964    0.5948547040   -2.0400165895
H       -0.1762390564   -1.0919559186   -2.4446129613
H       -1.9073739489   -0.5009351755    1.3426226400
H       -1.5497842305    0.9814664243    0.4245087933
H        5.0183599794    2.2160884286    1.6881761880
H        5.0329142550    0.4695640593    1.9108950058
H        4.2713499322    1.5047005445    3.1416219560
H        1.9200818641    2.3959438517    0.0495940614
H        3.2277535492    3.3113916386    0.7873131695
H        1.8112533341    2.8599324257    1.7653261862
H        0.2549917363   -0.3707455752    2.1487032222
H       -2.0978412157   -1.0000811041   -0.9672545595
24   

C        1.1355444143   -0.3691460012   -1.0444360558
C        1.3283708612   -0.0800351267    0.2831999303
C        2.6825793926    0.0264942361    0.9474206146
C       -0.2403055076   -0.5430206512   -1.6107633521
C       -1.1359788886    0.0540862136    0.6307826550
C        4.4293024905    1.3674851830    2.1090123064
C        2.3915011436    2.4829536109    1.1720576185
N        0.2256671295    0.0643175537    1.1612096890
N       -1.1644503232   -0.8587305563   -0.5108150003
N        3.1519594277    1.2611124021    1.4104998339
O        3.3604047149   -0.9866916971    1.1418565748
H        1.9973431498   -0.5494485998   -1.6748096627
H       -0.5506891673    0.3803336360   -2.1106789829
H       -0.2374701041   -1.3539387782   -2.3465061933
H       -1.8314613574   -0.2972060433    1.3995039181
H       -1.4297462940    1.0636141042    0.3243381008
H        5.2006823902    1.7406438075    1.4284782449
H        4.7546477066    0.4021782570    2.5094827227
H        4.3364529645    2.0534554622    2.9567450952
H        1.8590375182    2.4392859776    0.2166359274
H        3.0633312648    3.3457922375    1.1255448215
H        1.6676107657    2.6416333151    1.9774291640
H        0.3583845305   -0.1945479738    2.1343156340
H       -2.1100566299   -1.0222307780   -0.8398610268
24   

C        1.3040200954   -0.4825896191   -1.0204414724
C        1.5110209859   -0.0723983829    0.2735759628
C        2.8831141389    0.1112131348    0.8796423121
C       -0.0723307073   -0.7423634595   -1.5508560160
C       -0.9562264219    0.0205813785    0.6404283194
C        4.5438940996    1.4398291236    2.1533257588
C        2.4012427197    2.4992724308    1.4039651649
N        0.4105884925    0.1039490798    1.1504319728
N       -0.9742413339   -0.9885789222   -0.4159058654
N        3.2452414477    1.3127753174    1.5010485265
O        3.6976910643   -0.8163375132    0.8703464555
H        2.1625818256   -0.6941686403   -1.6459835103
H       -0.4144698670    0.1263560760   -2.1228685898
H       -0.0543607987   -1.6122464717   -2.2155820297
H       -1.6359504281   -0.2770083104    1.4450567035
H       -1.2748123583    0.9931907769    0.2506236179
H        5.3105012302    1.7081105385    1.4198821754
H        4.8293719848    0.5020755136    2.6412408777
H        4.5060176640    2.2115233808    2.9285843243
H        1.7786505602    2.4743102046    0.5040018028
H        3.0210530041    3.3988471379    1.3355109379
H        1.7543043094    2.5792540356    2.2827804112
H        0.5588686349   -0.0575262142    2.1417200771
H       -1.9188614828   -1.2016136607   -0.7183431720
24   

C       -0.1382186665    0.5984086269    0.7060454125
C        1.2057588728    0.4101298231    0.4873261585
C        2.2644390786    1.1339570470    1.2817625756
C       -1.1796814271   -0.0537905133   -0.1498327497
C        0.6628397600   -1.2099735799   -1.3377064767
C        4.4728964877    1.2747248107    2.3846712525
C        3.5696083412   -0.9547159215    1.6978541906
N        1.6310827222   -0.4164764492   -0.5841634116
N       -0.5664903239   -0.4279859377   -1.4321503245
N        3.4385207364    0.4987375031    1.7092151234
O        2.1146075007    2.3249142941    1.5702844548
H       -0.4482941342    1.2969396408    1.4740249294
H       -1.5657811303   -0.9438043162    0.3578596312
H       -2.0099630638    0.6405358902   -0.3154420786
H        1.0484387540   -1.4125477092   -2.3418347673
H        0.4770956668   -2.1630379139   -0.8311278728
H        4.1751220762    1.4842469610    3.4168524268
H        4.6439606362    2.2219860859    1.8625223544
H        5.4204083001    0.7268614814    2.3920839102
H        4.0731651748   -1.2938598991    2.6086248235
H        4.1495365447   -1.2795998656    0.8290076573
H        2.5912271497   -1.4449164324    1.6801263915
H        2.5207868971   -0.2079461845   -1.0257867193
H       -1.2364416493   -0.8528149111   -2.0644719275
24   

C       -0.2053401058    0.6207354015    0.5678596463
C        1.1394761991    0.3586140981    0.4373379877
C        2.1743083608    1.0792362928    1.2626124855
C       -1.2345237707   -0.0312332627   -0.3027263922
C        0.5982900142   -1.3615617635   -1.2988907075
C        4.4187844318    1.3409714474    2.2606527294
C        3.6502728103   -0.9222986339    1.5394076749
N        1.5679688609   -0.5630823864   -0.5527018493
N       -0.5758969821   -0.5239751921   -1.5201664151
N        3.4184367298    0.5175259559    1.5889162507
O        1.9348004482    2.2105146512    1.6951487951
H       -0.5234836877    1.3748944724    1.2780514509
H       -1.6978812210   -0.8625262811    0.2387707751
H       -2.0135430313    0.6937510058   -0.5604309943
H        1.0242225144   -1.6608349448   -2.2617014900
H        0.3318398938   -2.2614188518   -0.7343092686
H        4.1471832423    1.4854718163    3.3111014915
H        4.4971391146    2.3190027124    1.7741807184
H        5.4042825915    0.8675249081    2.2094323074
H        4.2505208253   -1.2367747647    2.3990578786
H        4.1780767822   -1.1951082992    0.6209180634
H        2.7092175288   -1.4782145454    1.5973522083
H        2.4872434687   -0.4312315256   -0.9613763219
H       -1.2343721052   -0.9584191400   -2.1579924397
24   

C       -0.2087957588    0.7010933761    0.5528135542
C        1.1217869391    0.3453356131    0.5089160721
C        2.1446417033    1.0133686579    1.3920490474
C       -1.2333243942    0.0956850588   -0.3560487076
C        0.5418500511   -1.4087657340   -1.1845689511
C        4.4113165105    1.3430211731    2.3127806823
C        3.7584600516   -0.9056689907    1.4619614664
N        1.5279672549   -0.6479666741   -0.4211244648
N       -0.5465450607   -0.4949246418   -1.5122495290
N        3.4381019040    0.5096972422    1.6124576356
O        1.8489117084    2.0521185234    1.9901319308
H       -0.5180816069    1.4922473935    1.2258017038
H       -1.7919325299   -0.6748512740    0.1854546156
H       -1.9362745984    0.8673849766   -0.6865382659
H        0.9952395063   -1.7878247837   -2.1058351083
H        0.1744223502   -2.2558030805   -0.5954532130
H        4.1788029139    1.3810118601    3.3817371201
H        4.4014014422    2.3610581185    1.9090950089
H        5.4232298303    0.9470291768    2.1816127066
H        4.4506928006   -1.2213233405    2.2490203224
H        4.2228501975   -1.0946670847    0.4897605787
H        2.8638699918   -1.5266755318    1.5713877829
H        2.4700037889   -0.5931419354   -0.7927405684
H       -1.2000091125   -0.9076166052   -2.1694038149
24   

C       -0.1970211212    0.7507449071    0.4813341017
C        1.1042245176    0.2970928691    0.5409100342
C        2.1042574706    0.9249758844    1.4829106116
C       -1.2104756053    0.1805016244   -0.4623432638
C        0.4715609836   -1.5172900373   -1.0725700881
C        4.3610127797    1.3475590998    2.3893575280
C        3.8835272876   -0.8491309347    1.3236088485
N        1.4769265405   -0.7813416147   -0.3107451806
N       -0.5091221954   -0.5412805269   -1.5316783912
N        3.4395214557    0.5056947945    1.6300613257
O        1.7487609024    1.8587199194    2.2082778835
H       -0.4903723570    1.5898011746    1.1013614075
H       -1.8716841405   -0.5014946163    0.0823787075
H       -1.8169756506    0.9880414913   -0.8853167478
H        0.9388804263   -2.0051458996   -1.9337001847
H       -0.0010261744   -2.2805025086   -0.4450395985
H        4.1633298610    1.2551634116    3.4619889225
H        4.2492455952    2.3966011658    2.0951136093
H        5.3987137151    1.0611870030    2.1914841685
H        4.6862701825   -1.1470915357    2.0056436317
H        4.2587457810   -0.9103471395    0.2979365061
H        3.0742460551   -1.5705152219    1.4728284931
H        2.4314867504   -0.8105838337   -0.6494969945
H       -1.1566292261   -0.9448635392   -2.2003218135
