32

C      1.32393   -0.96762   -5.53729
C      0.13336   -0.41500   -6.01650
C      1.54002   -1.08989   -4.16253
C     -0.62598   -0.08459   -3.75346
C     -0.85901    0.02754   -5.12959
C      0.56113   -0.64089   -3.27087
C     -0.07811   -1.40462   -1.05906
C     -3.24908   -0.54356   -5.72725
C      1.48450    1.58265   -1.19337
C     -2.17968    0.56066   -5.63861
C      0.17515   -1.42691    0.45650
C      1.88586    0.11021   -1.31358
N      0.80322   -0.72747   -1.85552
O     -1.05751   -2.01618   -1.49573
O     -0.85558   -2.13323    1.10274
H      2.08244   -1.31362   -6.23461
H     -0.02960   -0.32926   -7.08875
H      2.45377   -1.54049   -3.78442
H     -1.38098    0.24655   -3.04620
H     -2.93304   -1.33692   -6.41255
H     -4.20092   -0.13823   -6.08731
H     -3.41803   -1.00098   -4.74729
H      1.19359    1.98350   -2.16862
H      0.64010    1.70498   -0.50771
H      2.32370    2.17550   -0.81458
H     -2.53648    1.35666   -4.97506
H     -2.03883    1.01332   -6.62647
H      1.14553   -1.90531    0.65460
H      0.22402   -0.40075    0.84454
H      2.19720   -0.28707   -0.34669
H      2.74724    0.01223   -1.97922
H     -1.42761   -2.46588    0.37916
