42

C      0.78633   -2.52813   -2.59426
C      1.22019   -1.98993   -1.59652
C     -1.17331   -4.29369   -5.90943
C     -1.75127   -4.76944   -0.81631
C     -0.21539   -5.02397   -5.19577
C     -1.46582   -2.97675   -5.53529
C     -2.26059   -3.55177   -1.27804
C     -0.88053   -4.77976    0.27651
C      0.44635   -4.44520   -4.11285
C     -0.80704   -2.39125   -4.45428
C     -1.88925   -2.35453   -0.66520
C     -0.51194   -3.57740    0.88756
C      0.15597   -3.12207   -3.73069
C     -0.99493   -2.34857    0.41677
C     -1.23709    0.85352   -0.24753
C     -1.54263    0.07038    1.02432
C     -0.49936   -1.05952    1.04731
C      0.69104   -0.39547    0.28234
C      0.73479    1.26372   -1.67397
C      1.70080   -1.36286   -0.36269
N      0.02782    0.50761   -0.65222
O     -1.97248    1.66556   -0.80126
O      2.90915   -0.60590   -0.57170
H     -1.68884   -4.74816   -6.75139
H     -2.03260   -5.69934   -1.30340
H      0.01206   -6.04719   -5.48322
H     -2.20983   -2.40708   -6.08592
H     -2.93413   -3.53321   -2.13049
H     -0.48860   -5.72083    0.65441
H      1.18027   -5.01139   -3.54690
H     -1.03568   -1.37353   -4.15172
H     -2.27913   -1.42109   -1.05898
H      0.16605   -3.59525    1.73905
H     -1.40197    0.75600    1.86815
H     -2.57810   -0.27104    1.04167
H     -0.17070   -1.27966    2.06647
H      1.29058    0.18516    1.00072
H      1.58665    1.79741   -1.23891
H      0.02708    1.97803   -2.09791
H      1.10590    0.60325   -2.46110
H      1.89785   -2.15776    0.37090
H      3.47029   -1.11219   -1.18102
