40

C      0.35191    2.42168    2.89480
C      0.40123    1.18623    2.25816
C      2.06020    0.46378    3.86587
C      1.00524    6.15477    4.99611
C      0.79724    5.21312    4.01776
C      1.16973    2.71523    3.99115
C      1.27210    0.18962    2.73720
C      2.02378    1.71471    4.49075
C      1.57352    4.27665    5.87388
C      0.50390   -1.59816    1.17813
C      4.38346   -5.22980    2.39944
C      2.02024    3.18436    6.78196
C      2.32069   -2.08699    2.58422
C      2.13308   -3.19729    1.53973
C      5.45717   -5.71290    3.35759
C      2.00934   -4.60332    2.12526
N      1.49061    5.56262    6.14891
N      1.16293    3.99778    4.58690
N      1.37787   -1.07617    2.12370
N      3.15874   -4.95125    2.95553
O     -0.46005   -1.07138    0.66866
O      4.59287   -5.08215    1.19722
O      0.89196   -2.87380    0.87543
S      3.10592    2.01280    5.87156
H     -0.34233    3.17223    2.52999
H     -0.23996    0.98426    1.41212
H      2.71265   -0.29377    4.28421
H      0.84528    7.22327    4.93484
H      0.47545    5.29494    2.99083
H      2.60542    3.60878    7.59844
H      1.17533    2.62774    7.20077
H      2.07014   -2.42751    3.59816
H      3.34493   -1.70653    2.59157
H      2.92933   -3.17690    0.79358
H      5.78449   -6.70685    3.04088
H      6.31968   -5.04570    3.28346
H      5.13016   -5.75998    4.40005
H      1.90695   -5.32079    1.30605
H      1.10928   -4.65250    2.74403
H      3.00214   -5.17693    3.92758
