39

C     -0.50892    1.82709   -0.46035
C      1.78085   -3.43695   -4.96175
C      1.00661   -4.19402   -4.07629
C      1.70457   -2.04036   -4.92349
C      0.16429   -3.55722   -3.15947
C      0.86060   -1.40923   -4.00514
C     -1.96161    0.46758    4.20320
C     -0.43287    1.51090    3.20012
C      0.07913   -2.15821   -3.11260
C     -2.81510    0.83193   -0.77897
C     -2.72147    1.32327    0.63236
C     -1.46400    0.81519   -0.07342
C     -0.79258   -1.46825   -2.08755
C      0.01190   -1.13037   -0.82055
C      0.14267   -0.31750    1.52599
C     -0.81586   -0.53367    0.32989
N      0.29677    2.62150   -0.74008
N     -1.32037    1.66862    4.17648
N     -1.52170   -0.41718    3.31075
N     -0.52525    0.26848    2.67656
O     -1.82914   -1.47273    0.66673
H      2.43400   -3.93003   -5.67715
H      1.05587   -5.27983   -4.10235
H      2.29948   -1.44379   -5.61064
H     -0.43781   -4.15174   -2.47498
H      0.80461   -0.32232   -3.98212
H     -2.76247    0.23102    4.89177
H      0.27602    2.24822    2.84531
H     -3.26021   -0.14347   -0.93717
H     -2.94835    1.55339   -1.57810
H     -2.77896    2.38917    0.82344
H     -3.12260    0.69171    1.41628
H     -1.20446   -0.55030   -2.51678
H     -1.63489   -2.10907   -1.81242
H      0.82209   -0.44109   -1.08172
H      0.47932   -2.04821   -0.44736
H      0.95892    0.34982    1.24458
H      0.56171   -1.28240    1.82181
H     -2.02676   -1.38917    1.62273
