46

C     -2.11507    1.25869   -0.84904
C     -2.77451    2.47667   -0.73366
C     -2.98841    1.71502    5.87655
C     -1.96222    0.42112    0.26646
C     -3.19924    2.03410    1.62414
C     -3.33572    2.85163    0.49054
C     -2.50139    0.81307    1.50318
C     -0.27887   -1.51333   -2.15886
C     -1.65473   -3.14359   -0.71965
C     -1.15487   -0.83732    0.10944
C      0.74266   -2.62899   -2.22791
C     -0.43090   -3.99736   -0.43756
C      0.89936   -3.38202   -0.89983
C     -1.43491   -1.68402   -1.14904
C     -5.81290    3.94500   -0.28055
C     -5.13066    2.41277    4.68810
C     -4.98570    2.08973    3.21055
N     -2.59145    0.61961    6.49747
N     -3.66629   -0.22131    6.48399
N     -4.67922    0.32724    5.88710
N     -4.27545    1.56458    5.50349
O     -0.23930   -0.52653   -2.87256
O     -2.78944   -3.57611   -0.63782
O     -0.31937   -1.17566    0.92738
O     -4.54216    4.85997    1.86196
O     -3.55194    5.31620   -0.44891
O     -3.63444    2.42268    2.85604
S     -4.24736    4.42791    0.49100
Cl    -2.38022   -0.18431    2.92243
H     -1.67764    0.96708   -1.79965
H     -2.84227    3.14863   -1.58336
H     -2.39578    2.59587    5.67660
H      0.38869   -3.31561   -3.01198
H      1.68365   -2.20302   -2.58496
H     -0.41733   -4.19120    0.64044
H     -0.61833   -4.96180   -0.92224
H      1.27484   -2.69829   -0.13623
H      1.64486   -4.17336   -1.01878
H     -2.35269   -1.33692   -1.62416
H     -6.41903    4.85288   -0.31768
H     -5.61554    3.57416   -1.28681
H     -6.29941    3.18389    0.33087
H     -6.16249    2.25320    5.00661
H     -4.86001    3.45604    4.86256
H     -5.17633    1.02767    3.02342
H     -5.68573    2.70839    2.63994
