49

C      3.58167    5.69922    3.36799
C      1.22116    6.23034    3.37400
C      3.29945    4.39621    2.95641
C      0.92734    4.93711    2.96326
C      2.55521    6.62677    3.58079
C      1.96491    4.01305    2.75195
C     -0.72470   -1.01396    4.96951
C      0.64867   -1.10403    4.86202
C     -1.15815   -1.63751    6.19196
C      2.92164    7.99727    4.02054
C      1.61300   -0.64793    3.83648
C      0.38301   -0.72593    0.07778
C     -0.03176   10.12938    6.00805
C      1.01568   12.30724    5.23747
C      0.99619    0.60780    0.51475
C      2.10299   10.13778    4.65177
C      2.57273    1.77111    2.15845
C      0.76744   10.82986    4.90126
C      1.88635    0.47724    1.74514
N     -0.22825   -2.15643    6.95431
O      4.06636    8.38434    4.19481
O      2.81020   -0.86791    3.93731
O      1.57369    2.77053    2.34447
O      1.83552    8.78440    4.21228
O      1.02671    0.00656    2.82791
S      1.26898   -1.93382    6.24975
Cl    -1.81064   -0.28636    3.84811
Cl    -2.81953   -1.72245    6.67333
H      4.60820    6.01298    3.53047
H      0.41989    6.94267    3.53732
H      4.11495    3.69935    2.80109
H     -0.09668    4.61422    2.80068
H     -0.26122   -1.13584    0.86053
H     -0.22422   -0.59419   -0.82295
H      1.15840   -1.46722   -0.14744
H      0.50833   10.17070    6.96202
H     -0.20831    9.07753    5.76663
H     -1.00304   10.61429    6.15325
H      1.60752   12.40819    6.15517
H      0.06796   12.83185    5.39592
H      1.55318   12.82090    4.43270
H      1.61288    1.02272   -0.29154
H      0.21303    1.34143    0.72422
H      2.68468   10.64760    3.87759
H      2.71203   10.10118    5.56097
H      3.14150    1.61740    3.08132
H      3.26941    2.06607    1.36202
H      0.19092   10.77842    3.96832
H      2.66629   -0.27363    1.58653
