39

C     -7.10418   -6.52439    6.83635
C     -5.97452   -6.88081    7.58829
C     -6.98804   -6.17246    5.48687
C     -4.69875   -6.89326    7.00897
C     -4.27617   -8.71440    1.81317
C     -5.72174   -6.18554    4.90600
C     -4.56174   -7.70034    0.83142
C     -4.61257   -6.54073    5.66931
C     -4.99164   -9.83744    1.47585
C     -5.47056   -8.25110   -0.08013
C     -5.39615   -5.84385    3.49003
C     -4.04398   -6.34018    0.76445
C     -5.04067  -11.17873    2.13589
C     -6.15417   -7.63545   -1.25768
C     -6.67539  -10.43506   -0.31283
C     -3.36382   -5.73880    2.01274
N     -5.71862   -9.54089    0.31929
N     -4.03678   -6.04496    3.27438
O     -6.17851   -5.45614    2.63931
O     -4.07066   -5.63223   -0.24099
O     -2.28001   -5.32879    5.06682
O     -2.51677   -7.76975    4.49746
S     -3.12998   -6.45271    4.67935
H     -8.08119   -6.52161    7.31115
H     -6.08756   -7.14944    8.63471
H     -7.85007   -5.89276    4.88879
H     -3.81883   -7.16584    7.58352
H     -3.58849   -8.65010    2.64469
H     -6.05568  -11.45474    2.44754
H     -4.66477  -11.97927    1.48609
H     -4.41293  -11.15895    3.02964
H     -5.79785   -8.06731   -2.20188
H     -7.23992   -7.77951   -1.21307
H     -5.93683   -6.56878   -1.28374
H     -7.68586  -10.28578    0.08560
H     -6.69445  -10.26053   -1.38975
H     -6.38169  -11.47125   -0.13985
H     -3.30490   -4.65915    1.86142
H     -2.34587   -6.13752    2.07376
