23

C      2.14912   -1.17096   -0.11949
C      0.94610   -0.68195    0.37383
C      2.93873   -1.63713    2.18036
C      3.11416   -1.60560    0.79061
C      1.71408   -1.12122    2.66074
C      0.74559   -0.65583    1.75129
C      3.46051   -3.15943    4.19145
C      4.00582   -2.21365    3.11231
N      4.73260   -1.09517    3.73443
N      4.40574   -1.99644    0.19186
O      5.43637   -1.52041    0.68505
O      4.37568   -2.73466   -0.79609
O      1.49457   -1.09409    3.99892
Cl    -0.77090   -0.03032    2.38850
H      2.35244   -1.20158   -1.18349
H      0.17391   -0.31733   -0.29509
H      2.93080   -2.61692    4.97276
H      2.78564   -3.90281    3.75618
H      4.30152   -3.69790    4.64302
H      4.66355   -2.82861    2.48592
H      5.30152   -0.64243    3.02011
H      5.37485   -1.46448    4.43449
H      0.61398   -0.71320    4.16794
