23

C      3.04520    1.00645    0.06486
C      4.25288    0.93279   -0.69945
C      2.25424   -0.09621   -0.11822
C      4.39782   -0.19700   -1.46052
C      5.53435   -0.61521   -2.34448
C     -0.61249    0.66719    3.78485
C      0.89949   -0.37610    0.47507
C     -0.54967    0.04480    2.39192
N      0.76493    0.26355    1.78211
S      3.00138   -1.22080   -1.22320
Br     5.56922    2.31670   -0.64394
H      2.77352    1.83232    0.71081
H      6.33097   -1.09589   -1.76458
H      5.20517   -1.31946   -3.11324
H      5.96682    0.25664   -2.84251
H      0.11693    0.20205    4.45886
H     -0.39536    1.73854    3.73761
H     -1.60530    0.53068    4.22545
H      0.11982    0.03546   -0.17970
H      0.72765   -1.46816    0.50637
H     -1.30014    0.51405    1.74386
H     -0.81054   -1.02823    2.45039
H      1.48889   -0.10234    2.39950
