43

C     -2.12041    4.08300   -6.69374
C     -0.82189    4.45382   -7.10060
C     -2.31468    2.95695   -5.89494
C      0.30597    3.72726   -6.71321
C     -1.19079    2.21674   -5.51833
C      0.09635    2.60892   -5.90083
C     -1.05743    1.00558   -4.69951
C      0.84439    0.96037   -2.34755
C      0.06796   -1.53833   -0.34899
C      1.38870   -1.01690   -0.93079
C      1.02157    1.17906    0.06109
C     -0.31133    0.73680    0.69195
C     -0.34618   -0.79563    0.94011
C     -0.62529    1.56961    1.93820
C      0.51918   -1.23088    2.12562
C      0.89132    0.04143   -3.58923
N      1.06171    1.74911   -5.33962
N      0.31340    0.68326   -4.74838
N      1.29962    0.42645   -1.16604
O     -1.88733    0.35932   -4.06546
O      0.42991    2.11126   -2.44450
O     -1.67918   -1.20211    1.30501
H     -2.96985    4.68279   -7.00789
H     -0.69302    5.33540   -7.72331
H     -3.30461    2.64822   -5.57140
H      1.30371    4.03398   -7.01530
H     -0.71785   -1.40026   -1.10370
H      0.13472   -2.61180   -0.14130
H      2.21486   -1.19352   -0.23328
H      1.64767   -1.54114   -1.85050
H      0.98545    2.23830   -0.19080
H      1.85335    1.02112    0.75777
H     -1.08491    0.94505   -0.06108
H      0.19808    1.54368    2.66021
H     -1.52532    1.19984    2.43670
H     -0.79060    2.61640    1.66303
H      0.13684   -0.80036    3.05328
H      1.56190   -0.92404    2.00845
H      0.48867   -2.31982    2.22384
H      0.29886   -0.85858   -3.41513
H      1.91766   -0.26528   -3.80930
H      1.69713    1.36427   -6.03913
H     -2.27468   -0.95878    0.57679
