38

C     -8.47107    4.57352    2.49076
C     -9.26486    4.20386    1.40005
C     -7.10515    4.29040    2.47864
C     -8.69564    3.56554    0.29583
C     -3.13153    2.40361    1.47673
C     -6.52695    3.64628    1.38169
C     -7.32524    3.29556    0.28349
C     -3.03421    3.81647    1.27441
C     -4.50297    2.17579    1.54861
C     -2.00787    1.48554    1.58368
C      0.23769   -0.13367    1.99180
C     -1.42685   -1.80023    2.65172
C      1.24354   -1.28139    1.88714
C     -0.36006   -2.87289    2.48059
C     -1.78893    4.63586    1.12140
N     -4.23244    4.39647    1.22690
N     -2.18069    0.22124    1.77594
N     -5.13143    3.37834    1.39226
N     -1.11943   -0.64474    1.80236
O      0.93876   -2.35423    2.76927
Cl    -6.61347    2.53799   -1.12018
Cl    -5.39290    0.73333    1.81627
H     -8.91371    5.07439    3.34669
H    -10.33065    4.41490    1.40224
H     -6.46508    4.56230    3.31233
H     -9.30239    3.28590   -0.55938
H     -1.02344    1.94648    1.47511
H      0.33051    0.37930    2.96515
H      0.47317    0.58771    1.20266
H     -2.40921   -2.17730    2.35731
H     -1.47692   -1.49805    3.71037
H      1.26761   -1.64738    0.84908
H      2.24185   -0.92733    2.15658
H     -0.53007   -3.69561    3.17927
H     -0.38301   -3.26744    1.45315
H     -1.20456    4.31458    0.25197
H     -2.05663    5.68614    0.98694
H     -1.14386    4.55268    2.00327
