50

C      0.08915   -4.64217    1.52539
C      1.19993   -5.47710    1.70141
C      0.05861   -3.73175    0.46866
C      2.27426   -5.38735    0.81618
C      4.69521   -4.59564   -2.85456
C      1.12556   -3.63603   -0.43642
C      2.23267   -4.47292   -0.24102
C      5.15393   -3.58890   -1.96215
C      3.52909   -5.09110   -2.29135
C      1.80951    0.58896    0.22493
C      2.05811   -0.80804   -0.34003
C      0.56085   -0.35674   -2.17984
C      0.27506    1.06740   -1.68711
C      1.45544    1.61998   -0.86020
C      6.37451   -2.72470   -2.07567
C      2.56966   -6.14147   -2.75443
C     -0.14212    1.97455   -2.84992
C      2.68012    1.98069   -1.71289
C      1.05354   -2.63733   -1.57271
N      4.33131   -3.46515   -0.91751
N      3.35073   -4.39509   -1.12794
N      0.87791   -1.26909   -1.08067
O      0.95071    2.82149   -0.23535
H     -0.74934   -4.70089    2.21472
H      1.23090   -6.18471    2.52550
H     -0.78970   -3.06493    0.34014
H      3.15689   -6.00870    0.93842
H      5.15190   -4.91941   -3.78108
H      0.97420    0.54524    0.93183
H      2.69789    0.92069    0.77881
H      2.95981   -0.82241   -0.97761
H      2.25456   -1.50726    0.47643
H     -0.33161   -0.73457   -2.69232
H      1.37178   -0.33687   -2.93506
H     -0.56364    1.00390   -0.98365
H      6.36585   -2.14610   -3.00604
H      6.41662   -2.02856   -1.23461
H      7.29030   -3.32620   -2.07215
H      2.48791   -6.96059   -2.03222
H      1.56372   -5.73084   -2.89509
H      2.90520   -6.55695   -3.70712
H      0.60245    1.97614   -3.65352
H     -0.27885    3.00310   -2.50678
H     -1.08908    1.63063   -3.28077
H      2.43963    2.78984   -2.40645
H      3.05179    1.12914   -2.28920
H      3.50013    2.32018   -1.06807
H      1.94187   -2.72934   -2.21822
H      0.18141   -2.87769   -2.19304
H      1.65915    3.18186    0.32226
