47

C      0.70330   -2.71722   -4.61131
C      2.61122   -4.14274   -7.46198
C      3.93445   -3.97561   -7.03262
C      1.56901   -3.74320   -6.63084
C      4.20465   -3.43049   -5.78057
C      4.62423   -1.77265   -3.17701
C      4.37811   -1.44296   -1.80805
C      1.83377   -3.17590   -5.37009
C      3.16933   -3.01971   -4.91898
C      3.51161   -2.44589   -3.62658
C      3.13794   -1.93694   -1.49814
C      0.48701    1.82442    0.56738
C      0.68263    1.41323   -0.91638
C     -1.31751    0.10919    1.15019
C      1.17296   -0.47991    1.34251
C     -0.62848   -0.77795   -1.02994
C      0.10230    0.62338    1.44964
C      0.77179   -0.11426   -1.05076
C     -2.96525   -0.52925   -0.47696
C      2.29762   -1.90252   -0.26111
N     -0.25575   -2.33867   -4.06859
N     -1.61957   -0.01275   -0.27211
N      1.71237   -0.58731   -0.01825
O      2.60402   -2.55011   -2.60210
H      2.39705   -4.57836   -8.43342
H      4.75696   -4.28728   -7.67069
H      0.53673   -3.85100   -6.94932
H      5.23276   -3.34032   -5.44359
H      5.49640   -1.51669   -3.76407
H      5.02409   -0.89367   -1.13633
H      1.41717    2.25128    0.95891
H     -0.28062    2.60054    0.65165
H     -0.14339    1.78097   -1.52943
H      1.61084    1.84590   -1.30202
H     -1.46321   -0.85310    1.68325
H     -2.04279    0.81441    1.57586
H      2.00533   -0.25623    2.02418
H      0.73313   -1.43383    1.68388
H     -0.98683   -0.85027   -2.05940
H     -0.54424   -1.82128   -0.66719
H      0.08686    0.94370    2.49837
H      1.22287   -0.35643   -2.01605
H     -3.20221   -0.53520   -1.54536
H     -3.69099    0.11571    0.03090
H     -3.09817   -1.55946   -0.09220
H      1.54693   -2.70989   -0.32840
H      2.93788   -2.13753    0.59665
