16

C      1.97445   -0.76562   -0.14877
C      0.81350   -0.40602    0.54604
C      3.01237   -1.41299    0.52043
C      0.69241   -0.68940    1.90828
C      2.90504   -1.72426    1.88537
C      1.73708   -1.34194    2.55445
C      3.98904   -2.44140    2.59070
N      3.92885   -3.54911    3.22453
O      2.64706   -4.11352    3.17185
F      1.62539   -1.57947    3.87887
Cl     5.58111   -1.69910    2.53710
H      2.07026   -0.54059   -1.20680
H      0.00360    0.10278    0.03076
H      3.91843   -1.68852   -0.01119
H     -0.18890   -0.40856    2.47658
H      2.75072   -4.90774    3.72184
