39

C     -5.39265   -1.16619    4.11414
C     -4.40565   -0.71951    3.22233
C     -5.55054   -2.52930    4.38654
C     -3.55201   -1.62626    2.58071
C     -4.03207   -9.57635    1.49107
C     -4.70689   -3.43509    3.74626
C     -4.92145   -8.48590    1.18496
C     -3.73703   -2.97312    2.86074
C     -4.44109  -10.67201    0.77051
C     -5.86319   -8.96933    0.26852
C     -4.72970   -4.91830    3.89673
C     -4.86260   -7.13178    1.72079
C     -3.87799  -12.05635    0.71352
C     -7.02095   -8.28377   -0.38252
C     -6.32972  -11.17371   -0.82970
C     -3.72702   -6.86528    2.73545
N     -5.55486  -10.28427    0.02190
N     -3.69287   -5.47451    3.14423
O     -5.49801   -5.56762    4.58538
O     -5.64410   -6.22623    1.44317
O     -3.01553   -4.56698    0.78392
O     -1.41306   -4.30030    2.70579
S     -2.78863   -4.33919    2.20917
H     -6.04130   -0.44143    4.59802
H     -4.30053    0.34350    3.02471
H     -6.30788   -2.89481    5.07341
H     -2.78400   -1.28935    1.89130
H     -3.18341   -9.56302    2.16242
H     -4.61369  -12.81762    0.99996
H     -3.50545  -12.31454   -0.28570
H     -3.03691  -12.13155    1.40645
H     -6.88835   -8.21623   -1.46988
H     -7.96117   -8.81628   -0.19525
H     -7.10457   -7.27292    0.01311
H     -7.13168  -11.66482   -0.26657
H     -6.77326  -10.60966   -1.65113
H     -5.67927  -11.94013   -1.25323
H     -2.75654   -7.13893    2.31456
H     -3.88677   -7.47565    3.62860
