47

C      4.17666   -5.48849   -0.47999
C      7.78648   -6.34750   -0.60359
C      8.38639   -5.08122   -0.63652
C      6.39907   -6.44193   -0.57095
C      7.60250   -3.93231   -0.64690
C      5.76756   -1.45958   -0.30137
C      4.58198   -0.67704   -0.46962
C      5.59690   -5.28420   -0.56842
C      6.19488   -3.99779   -0.61204
C      5.43459   -2.75898   -0.61168
C      3.59952   -1.54169   -0.87444
C      0.19524    1.66801    1.03440
C      0.15760    1.72711   -0.51635
C     -1.12370   -0.49785    1.35239
C      1.41262   -0.53668    0.93208
C     -0.90882   -0.52268   -1.08584
C      0.22547    0.21945    1.54962
C      0.38021    0.33789   -1.13343
C     -3.04400   -0.91366   -0.03383
C      2.15476   -1.36981   -1.23383
N      3.04290   -5.74325   -0.38821
N     -1.76094   -0.23048    0.06481
N      1.56701   -0.25831   -0.50549
O      4.10672   -2.80750   -0.96159
H      8.39463   -7.24721   -0.60464
H      9.46897   -4.99212   -0.66811
H      5.91295   -7.41212   -0.53779
H      8.08055   -2.95935   -0.70387
H      6.73373   -1.10960    0.03725
H      4.45296    0.38332   -0.30309
H      1.09015    2.18147    1.40343
H     -0.66929    2.18957    1.45655
H     -0.80141    2.12181   -0.86127
H      0.94601    2.39127   -0.88342
H     -0.97806   -1.58410    1.51849
H     -1.81836   -0.15237    2.12770
H      2.33505   -0.24648    1.44982
H      1.28321   -1.61716    1.10960
H     -1.49941   -0.30243   -1.98262
H     -0.64061   -1.59610   -1.14323
H      0.40085    0.23188    2.63202
H      0.63452    0.46573   -2.19125
H     -3.54528   -0.63119   -0.96540
H     -3.68697   -0.61491    0.80083
H     -2.95164   -2.01669   -0.01496
H      2.07493   -1.16388   -2.30882
H      1.64797   -2.33561   -1.05867
