36

C      2.74022   -2.96623   -1.17416
C      0.01781    0.21401    4.21371
C     -7.86327    2.19163    5.19043
C     -8.67782    1.28281    4.50891
C      2.17253   -1.78981    0.91460
C      0.39865   -2.45692   -0.61418
C     -6.48418    1.99959    5.19720
C      1.23217   -1.24148    1.77729
C     -0.53643   -1.90731    0.25329
C     -8.10374    0.19355    3.85027
C      1.76427   -2.40057   -0.28576
C     -5.90255    0.90657    4.52820
C     -0.14515   -1.28914    1.46286
C     -6.71784   -0.02311    3.84170
C     -4.43623    0.77833    4.58944
C     -2.43962    0.34034    4.09001
C     -1.21176   -0.74805    2.29089
C     -1.17851   -0.09248    3.48633
C     -6.17196   -1.23640    3.12336
N      3.53070   -3.42632   -1.89632
N      0.99036    0.46162    4.80546
N     -3.64944    0.17062    3.62659
N     -3.74222    1.28622    5.59518
O     -2.40680    1.00113    5.26052
H     -8.29689    3.04316    5.70728
H     -9.75611    1.41873    4.49123
H      3.22832   -1.74946    1.16327
H      0.08464   -2.92809   -1.54005
H     -5.83728    2.69999    5.71594
H      1.57557   -0.77855    2.69292
H     -1.59145   -1.95255   -0.00349
H     -8.74606   -0.51411    3.33176
H     -2.21539   -0.88425    1.89445
H     -5.62955   -0.95095    2.21783
H     -5.46863   -1.79618    3.74578
H     -6.98901   -1.90555    2.84129
