23   

C       -4.8394599625   -6.8729071722   -2.0221284736
C        1.2347101820   -4.8207368156    3.1736932330
C       -3.3355728355   -4.8946904544   -1.4716640763
C        1.0757266344   -5.3672093048    1.9398700285
C       -3.7725522390   -6.5056216127    0.1796504955
C       -4.0130479506   -6.1339507180   -1.1173617576
C       -2.5758945630   -4.3762083332   -0.4440670977
C        0.6971211138   -3.5088218471    3.4436243069
C       -0.1413603776   -3.3644612040    1.3093938295
C       -1.8558197225   -3.1092718631   -0.4969829350
C       -0.8855133087   -2.6259284124    0.3053439557
N       -5.5075031147   -7.4769053190   -2.7604420872
N        0.0167431583   -2.8104622042    2.4726301093
N        0.3830435605   -4.6182218278    0.9895585024
O        0.8350723224   -3.0208991645    4.5519774778
S       -2.7150894933   -5.3748437704    1.0131887497
H        1.7543464911   -5.3328158544    3.9710962821
H       -3.4334601768   -4.4289965043   -2.4468830624
H        1.4780528094   -6.3534879409    1.7199024619
H       -4.1867342309   -7.3928053048    0.6451367636
H       -2.1559847639   -2.4459982509   -1.3020406400
H       -0.6957865535   -1.5600824502    0.2880651943
H        0.2106833012   -4.9592857431    0.0510006773
23   

C       -4.5232501645   -7.0160961518   -1.9709497698
C        1.3106818662   -4.8953976211    3.0976467785
C       -3.1738407547   -4.9317808196   -1.4118557403
C        0.9598310470   -5.4544656049    1.9101345518
C       -3.8241720136   -6.3829762728    0.3167848516
C       -3.8679168315   -6.1551279257   -1.0345415299
C       -2.6029852662   -4.2822133003   -0.3396613593
C        0.9389688512   -3.5288674800    3.3759252646
C       -0.1127615879   -3.3523558306    1.3402666915
C       -1.8925396744   -3.0039293597   -0.3854846690
C       -0.8861604128   -2.5637883956    0.3957690864
N       -5.0509869580   -7.7195753099   -2.7342842489
N        0.2283232835   -2.7886341463    2.4588757225
N        0.2424537949   -4.6628341815    1.0146918424
O        1.2457938681   -3.0300286185    4.4448608827
S       -2.9386796627   -5.1312046546    1.1783009220
H        1.8635893850   -5.4375059690    3.8516126136
H       -3.1236313225   -4.5723842681   -2.4346219141
H        1.2343916043   -6.4822829249    1.6838112517
H       -4.2840654620   -7.2346853612    0.8052391620
H       -2.2063291312   -2.3249117823   -1.1720695234
H       -0.6711306131   -1.5024918732    0.3998553262
H       -0.0755684551   -5.0106364196    0.1172591757
23   

C       -4.2291395059   -7.1186684302   -2.0247245268
C        1.2507891253   -5.1087406776    3.0574338196
C       -3.0406647212   -4.9613266818   -1.3832767003
C        0.7230619999   -5.6367093729    1.9224799835
C       -3.9511534458   -6.3217287676    0.3016891611
C       -3.7646091473   -6.1800822744   -1.0496150877
C       -2.6858893365   -4.2274822960   -0.2751960064
C        1.0477961224   -3.7101537830    3.3499504267
C       -0.1839616945   -3.4383994488    1.4278636128
C       -1.9832621180   -2.9375394695   -0.2452337877
C       -0.9595047789   -2.5737040771    0.5508525503
N       -4.6005959206   -7.8855377365   -2.8183433369
N        0.3244709142   -2.9069084984    2.4979276632
N       -0.0005764353   -4.7816374899    1.0932390101
O        1.5132717584   -3.2379586961    4.3727172603
S       -3.2548784887   -4.9909237545    1.2172851912
H        1.8231971635   -5.6993085883    3.7585607825
H       -2.8142395556   -4.6664150353   -2.4030201476
H        0.8677903649   -6.6883807049    1.6856871369
H       -4.4714471990   -7.1555225721    0.7597344561
H       -2.2993126933   -2.2077849108   -0.9840910837
H       -0.7110567726   -1.5212002860    0.6094698955
H       -0.4473395566   -5.1009943763    0.2407699816
23   

C       -3.9344789599   -7.2299991184   -2.0035042045
C        1.2296302876   -5.2088097428    2.9804531293
C       -2.8995899590   -5.0004519707   -1.3428390895
C        0.5500973976   -5.7241677820    1.9233156674
C       -4.0444486182   -6.2645464774    0.2727594469
C       -3.6475656447   -6.2124667910   -1.0392077867
C       -2.7462589441   -4.1799471092   -0.2514413885
C        1.1646039296   -3.7910172439    3.2415441149
C       -0.2256915787   -3.4730939095    1.4371143548
C       -2.0581094473   -2.8783394278   -0.1748922471
C       -1.0065030573   -2.5665569438    0.6048532534
N       -4.1607198349   -8.0612869786   -2.7867706038
N        0.4258427711   -2.9558719118    2.4344403315
N       -0.1857538371   -4.8370648171    1.1400768861
O        1.7652452811   -3.3291500999    4.1963618615
S       -3.5257723278   -4.8535271323    1.1864922834
H        1.8237187044   -5.8235309361    3.6416105229
H       -2.5106780078   -4.7733365363   -2.3306463466
H        0.5886856856   -6.7901342165    1.7105350087
H       -4.6171263423   -7.0786970279    0.7030327665
H       -2.4054347372   -2.1092098162   -0.8576988005
H       -0.7236463613   -1.5235821317    0.6780848516
H       -0.7384798585   -5.1426429100    0.3462811584
23   

C       -3.6713903420   -7.2722864027   -1.9718572294
C        1.2151572218   -5.2215331786    2.9359391669
C       -2.7765390183   -4.9948424775   -1.2708717584
C        0.3888266600   -5.7329085676    1.9870792365
C       -4.1778958565   -6.1833862274    0.1923768944
C       -3.5603307153   -6.1986237900   -1.0324533412
C       -2.8224693223   -4.1126633279   -0.2195892088
C        1.2739945438   -3.7927260281    3.1281933260
C       -0.2797246839   -3.4547872195    1.4649258798
C       -2.1545817800   -2.8016113928   -0.0838936948
C       -1.0762537401   -2.5252193828    0.6711194538
N       -3.7548746865   -8.1495260170   -2.7328206833
N        0.5098180478   -2.9433090042    2.3607054466
N       -0.3690072436   -4.8307079012    1.2430369904
O        2.0072140770   -3.3328155276    3.9865293948
S       -3.8318804036   -4.7161108429    1.0996088518
H        1.8375216324   -5.8473464342    3.5595886883
H       -2.2197083368   -4.8174487259   -2.1860898762
H        0.3326290070   -6.8072207510    1.8266701892
H       -4.8128007245   -6.9806474117    0.5630558509
H       -2.5579200088   -1.9903887276   -0.6820148334
H       -0.7698039133   -1.4889637403    0.7465486560
H       -1.0173369769   -5.1304056296    0.5224601292
23   

C       -3.4690758943   -7.3208125048   -1.9296749470
C        1.2385737607   -5.2508997270    2.8739574547
C       -2.6725533988   -5.0250371743   -1.1718906399
C        0.2733895861   -5.7558817613    2.0627005878
C       -4.3518876005   -6.1233438708    0.0484819745
C       -3.5134984132   -6.2055589483   -1.0342353308
C       -2.8957445726   -4.0950196936   -0.1864710050
C        1.4070405064   -3.8212415837    2.9683978368
C       -0.3105421727   -3.4698114249    1.4769764943
C       -2.2448063262   -2.7825088333    0.0095313721
C       -1.1350841041   -2.5282283785    0.7258710696
N       -3.4277079849   -8.2322433508   -2.6529215169
N        0.6095677797   -2.9655706006    2.2431969924
N       -0.5131035273   -4.8463506939    1.3580727509
O        2.2661684560   -3.3655074505    3.7033590224
S       -4.1514637172   -4.6191689712    0.9393802734
H        1.8930346149   -5.8823765353    3.4577559027
H       -1.9514431265   -4.8955484382   -1.9737039304
H        0.1331852505   -6.8310792980    1.9772464563
H       -5.0635030419   -6.8933923727    0.3257306570
H       -2.7240457712   -1.9340917333   -0.4691256619
H       -0.8132420472   -1.4960667314    0.7944449939
H       -1.2540424920   -5.1412509593    0.7308861806
23   

C       -3.7541289228   -7.7370831386   -0.6879527449
C        1.0828021539   -4.9745560028    3.3243995493
C       -2.5894590470   -5.4736829018   -0.6759292652
C       -0.0762186928   -5.4522165745    2.8014104953
C       -4.7056442774   -5.6862925789    0.3193677204
C       -3.7061379546   -6.3480469206   -0.3475893549
C       -2.7725535376   -4.1859538662   -0.2321593216
C        1.6355125752   -3.7441092169    2.8132590138
C       -0.1001672277   -3.5277919428    1.3167240379
C       -1.8844894846   -3.0202834267   -0.3997262297
C       -0.7333249351   -2.7612427496    0.2483604353
N       -3.7917828685   -8.8692786345   -0.9566802302
N        1.0077513568   -3.0534035176    1.8021139064
N       -0.6752968786   -4.7108777313    1.7843199842
O        2.6723701627   -3.3099864127    3.2849292995
S       -4.3291251619   -3.9867280004    0.5772591225
H        1.6143174888   -5.4835337007    4.1158229190
H       -1.7114861438   -5.8052333431   -1.2230509601
H       -0.5064949749   -6.3793610586    3.1732451834
H       -5.6279877537   -6.1524042958    0.6483811775
H       -2.2323793468   -2.2558702885   -1.0876905892
H       -0.1993745865   -1.8613161589   -0.0323593173
H       -1.5372104534   -5.0024343497    1.3356550748
23   

C       -3.6022618607   -7.7546229173   -0.5846509394
C        1.0917192716   -5.0331874971    3.2831224047
C       -2.5249155558   -5.4493830146   -0.5191816932
C       -0.1558832253   -5.4022322043    2.8924816585
C       -4.7898112339   -5.6795371143    0.0546392280
C       -3.6603724686   -6.3442829045   -0.3498941953
C       -2.8244022789   -4.1413877275   -0.2150606391
C        1.7081488228   -3.8760619421    2.6817340238
C       -0.1388470540   -3.5204631805    1.3549124463
C       -1.9631928950   -2.9534870915   -0.3040592833
C       -0.7985019569   -2.7169289226    0.3317428923
N       -3.5561894782   -8.9037496416   -0.7661296207
N        1.0520476084   -3.1475269872    1.7163082719
N       -0.7792207792   -4.6262324664    1.9163826609
O        2.8257539093   -3.5396893594    3.0335845325
S       -4.5173966917   -3.9520938499    0.2504343773
H        1.6482285082   -5.5762461299    4.0336838013
H       -1.5490278566   -5.7813841304   -0.8625278086
H       -0.6352076968   -6.2728894095    3.3343295407
H       -5.7461080635   -6.1595738399    0.2312269554
H       -2.3509574447   -2.1360000915   -0.9040781352
H       -0.2625365334   -1.8155263784    0.0597265030
H       -1.7043983568   -4.8416992194    1.5602423603
23   

C       -3.4684955509   -7.7665267644   -0.4731490907
C        1.0846939055   -5.0784511133    3.2439225395
C       -2.4823082770   -5.4226054995   -0.3641021240
C       -0.2248924558   -5.3363870537    2.9909563714
C       -4.8080039748   -5.7024321807   -0.2111153052
C       -3.6060563401   -6.3475069136   -0.3507940669
C       -2.8655498282   -4.1085318843   -0.2097524275
C        1.7397073705   -3.9961142210    2.5508787395
C       -0.1906005629   -3.5003929946    1.4002697959
C       -2.0469325253   -2.8938293911   -0.2077348503
C       -0.8758102927   -2.6647782064    0.4223335443
N       -3.3605130272   -8.9224012648   -0.5622691975
N        1.0584871896   -3.2302521672    1.6329164920
N       -0.8712202421   -4.5250255241    2.0593941093
O        2.9133795527   -3.7592062565    2.7794873970
S       -4.6211746271   -3.9574602667   -0.0846855931
H        1.6631042865   -5.6566656613    3.9504121180
H       -1.4520049817   -5.7405465292   -0.4983027525
H       -0.7338357278   -6.1494457367    3.5038017062
H       -5.7677365749   -6.2065560834   -0.1842164168
H       -2.4662633095   -2.0462657112   -0.7410784895
H       -0.3449524071   -1.7567202526    0.1630145783
H       -1.8412742098   -4.6649842455    1.7977443905
23   

C       -3.3754979702   -7.7452532748   -0.3894049385
C        1.0739031338   -5.1361015017    3.2275896240
C       -2.4412403317   -5.3836753447   -0.2239680427
C       -0.2723242350   -5.2706354842    3.1038694309
C       -4.7521023637   -5.6922723067   -0.4968067023
C       -3.5419408173   -6.3241526526   -0.3731243291
C       -2.8520739020   -4.0671543493   -0.2180395087
C        1.7600280069   -4.1328716173    2.4503547702
C       -0.2129377221   -3.4798261062    1.4642234413
C       -2.0786683971   -2.8324699897   -0.1094899704
C       -0.9083155720   -2.6098224394    0.5268110390
N       -3.2465308470   -8.9024685882   -0.3920235205
N        1.0713634919   -3.3234087513    1.5763196018
N       -0.9244258899   -4.4166663961    2.2152771613
O        2.9667960494   -4.0052800826    2.5651966424
S       -4.6019016992   -3.9408552738   -0.4313914770
H        1.6592621113   -5.7561402838    3.8916677294
H       -1.4040762234   -5.6977539263   -0.1480383308
H       -0.8047449923   -6.0224348985    3.6822439624
H       -5.6967213703   -6.2094689315   -0.6230845072
H       -2.5167037000   -1.9643473698   -0.5923011311
H       -0.3787221948   -1.6955875643    0.2880234319
H       -1.9227882319   -4.4703866726    2.0452277888
23   

C       -3.3553982762   -7.7594187417   -0.2890116823
C        1.1117617787   -5.1252540172    3.1653725743
C       -2.4615479542   -5.3848054074   -0.0935134659
C       -0.2457493304   -5.1815373171    3.1770963610
C       -4.6910596973   -5.7275296032   -0.7428093940
C       -3.5209120881   -6.3410058973   -0.3796789812
C       -2.8626177378   -4.0713657039   -0.2335140624
C        1.7749037518   -4.1828436433    2.2971307650
C       -0.2440007086   -3.4431218095    1.4822012895
C       -2.1511503952   -2.8123542944   -0.0390065839
C       -0.9804318030   -2.5647851851    0.5881849028
N       -3.2286700389   -8.9138730488   -0.2047137408
N        1.0514478896   -3.3577825694    1.4670038358
N       -0.9325715620   -4.3119308688    2.3304858822
O        2.9922651619   -4.1221577923    2.2944278997
S       -4.5518218232   -3.9746427203   -0.7472327237
H        1.7231874951   -5.7634142594    3.7875304566
H       -1.4560141941   -5.6950111699    0.1730849211
H       -0.7603980715   -5.8858984002    3.8269147987
H       -5.6006245123   -6.2585176903   -1.0002707114
H       -2.6229816295   -1.9418890863   -0.4842504381
H       -0.4781082657   -1.6328128397    0.3599963135
H       -1.9443944736   -4.3044145478    2.2664388759
23   

C       -4.2481267525   -7.2416909801    1.0215342518
C        1.1292305805   -4.9929087106    3.1394695428
C       -2.8716326808   -5.1600315869    0.5250979608
C        0.8215591142   -5.5729140159    1.9497473353
C       -4.6220757872   -5.7571320321   -0.9207048246
C       -3.9436657471   -6.0962148375    0.2198171600
C       -2.7604361569   -4.1385743421   -0.3980093149
C        0.8120135356   -3.6016144329    3.3538791257
C       -0.1227808778   -3.4462111697    1.2599334602
C       -1.8372076573   -3.0165727477   -0.5262728872
C       -0.7948012423   -2.6493256930    0.2501564303
N       -4.4903724984   -8.1817706530    1.6647031702
N        0.1811590604   -2.8632935469    2.3792036638
N        0.1988613443   -4.7772610232    0.9882675193
O        1.1023343937   -3.0759109510    4.4145053779
S       -3.9857466669   -4.2969275812   -1.6640926500
H        1.6100507827   -5.5356222220    3.9410410494
H       -2.2605945577   -5.2635953527    1.4145427191
H        1.0575060681   -6.6199260290    1.7725645935
H       -5.4568205882   -6.3209675543   -1.3214966249
H       -2.0578872654   -2.3307053738   -1.3382845859
H       -0.4642313227   -1.6196999368    0.1946447910
H       -0.0667397493   -5.1356243750    0.0780994391
23   

C       -4.3451895631   -7.2069802923    1.0164140098
C        1.1405257230   -5.1468823703    3.1486258165
C       -2.9887915372   -5.0920913774    0.6121712844
C        0.6661913098   -5.7006900620    2.0021255676
C       -4.4345716372   -5.8724217449   -1.0643299939
C       -3.9517303156   -6.1016171268    0.1973458323
C       -2.7571932226   -4.1329223614   -0.3532039301
C        0.9671050354   -3.7329708484    3.3777204646
C       -0.1510200450   -3.5001629585    1.3819832361
C       -1.8789630934   -2.9677805115   -0.3733213505
C       -0.8476421005   -2.6432061208    0.4367715884
N       -4.6590730917   -8.1146818233    1.6748096240
N        0.3098099677   -2.9447566021    2.4612771661
N        0.0234982314   -4.8556612295    1.0979156917
O        1.4028893973   -3.2320615709    4.3998967745
S       -3.7386640385   -4.4315157384   -1.7934055167
H        1.6496523689   -5.7275629184    3.9047809643
H       -2.5324825105   -5.0951194383    1.5971445398
H        0.7900950107   -6.7649500557    1.8143835539
H       -5.1636199008   -6.5039290552   -1.5595374690
H       -2.0998843775   -2.2368309045   -1.1449974819
H       -0.5279481854   -1.6084942449    0.4490000520
H       -0.3740962476   -5.1938027272    0.2287034455
23   

C       -4.4305914483   -7.1529952750    1.0102602771
C        1.1752620519   -5.1973312452    3.1117401439
C       -3.0935323135   -5.0179580772    0.6481615753
C        0.5607146146   -5.7427063618    2.0297854692
C       -4.2294016508   -5.9874382287   -1.1628367772
C       -3.9456929277   -6.0982333752    0.1736929445
C       -2.7394096104   -4.1317516525   -0.3474070289
C        1.1098965825   -3.7711947852    3.3195839143
C       -0.1702493899   -3.5063949512    1.4268003740
C       -1.9239268504   -2.9207490960   -0.2930981808
C       -0.8934295161   -2.6200102662    0.5264911410
N       -4.8184683748   -8.0195161392    1.6844110227
N        0.4213608563   -2.9610021174    2.4461167167
N       -0.1112858604   -4.8766452816    1.1681343895
O        1.6669045089   -3.2786830021    4.2854676882
S       -3.4717717955   -4.5776497814   -1.8927720687
H        1.7175373776   -5.7938641303    3.8315867846
H       -2.7918285309   -4.9183843284    1.6869978773
H        0.5999722778   -6.8162098157    1.8587835503
H       -4.8515484020   -6.6860220432   -1.7111599925
H       -2.1675702741   -2.1615441976   -1.0298907479
H       -0.5799677755   -1.5841385369    0.5714875107
H       -0.6176806601   -5.2066050267    0.3537512059
23   

C       -4.5608079776   -7.1285785461    0.9419708091
C        1.2274072192   -5.2078967875    3.0981366066
C       -3.2334060344   -4.9750175438    0.6618855109
C        0.4572949346   -5.7571555361    2.1230523666
C       -4.0117477748   -6.1047482480   -1.2429361087
C       -3.9624352605   -6.1157198783    0.1273667263
C       -2.7324729784   -4.1487683126   -0.3200279454
C        1.2729887039   -3.7731339663    3.2401629034
C       -0.1955080368   -3.5046206613    1.4888224146
C       -1.9857242357   -2.8952032933   -0.1915814842
C       -0.9538577988   -2.6053614509    0.6283814100
N       -5.0405592661   -7.9602417033    1.6006229012
N        0.5407576337   -2.9574053095    2.4084963804
N       -0.2569699403   -4.8861611088    1.3014284524
O        1.9672469993   -3.2772614697    4.1108015613
S       -3.1736584680   -4.7198409099   -1.9324734860
H        1.8139176803   -5.8073802504    3.7797844134
H       -3.1142352613   -4.7911550057    1.7261302323
H        0.4105542477   -6.8371779028    2.0027857329
H       -4.5122434005   -6.8604592383   -1.8382147985
H       -2.2654414101   -2.1109529331   -0.8882671149
H       -0.6477762324   -1.5679296311    0.6890547414
H       -0.8711904214   -5.2157502819    0.5644290629
23   

C       -4.6771223404   -7.1515824013    0.8450591132
C        1.2674587709   -5.1200418887    3.0655368619
C       -3.4030798713   -4.9573501548    0.6419725328
C        0.3686798390   -5.6886556240    2.2204469814
C       -3.7597038831   -6.2644800831   -1.2754077895
C       -3.9724511419   -6.1717250382    0.0763832335
C       -2.7580089119   -4.1824417872   -0.2941928628
C        1.3853009626   -3.6831482865    3.1107491912
C       -0.2590793883   -3.4488237529    1.5171955780
C       -2.1036579184   -2.8780463272   -0.1179319999
C       -1.0712571609   -2.5638417472    0.6896178942
N       -5.2432010392   -7.9551884133    1.4690142884
N        0.5965543023   -2.8841481285    2.3152877408
N       -0.4003126487   -4.8347212769    1.4311835606
O        2.1945298447   -3.1701561905    3.8643896586
S       -2.8593936534   -4.8914002582   -1.9084360532
H        1.9048870344   -5.7054042533    3.7128336432
H       -3.4918784208   -4.6885625117    1.6909431864
H        0.2655363732   -6.7704457973    2.1744206490
H       -4.1085975292   -7.0873461237   -1.8896450510
H       -2.4519740070   -2.0854946458   -0.7730704564
H       -0.7916388781   -1.5187891666    0.7484261604
H       -1.1026082903   -5.1781508610    0.7846114327
23   

C       -4.8021105622   -7.1376791980    0.7149447482
C        1.3288758068   -5.0774987794    3.0190610451
C       -3.5629973988   -4.9164579333    0.6134062142
C        0.3068920364   -5.6373196692    2.3210848364
C       -3.4961983069   -6.3591915173   -1.2381009143
C       -3.9791104438   -6.1855070238    0.0340553635
C       -2.7661642862   -4.1809535933   -0.2308747392
C        1.5272689864   -3.6499355804    2.9604393758
C       -0.2776406520   -3.4066479758    1.5525576773
C       -2.1811597213   -2.8446548457   -0.0123259082
C       -1.1349829466   -2.5214048686    0.7707805541
N       -5.4649294195   -7.9174199489    1.2700791688
N        0.6932347445   -2.8504204829    2.2129729369
N       -0.5037372440   -4.7841521247    1.5741186921
O        2.4475502748   -3.1456084960    3.5807195854
S       -2.5189530650   -4.9983013965   -1.7763884406
H        2.0068436124   -5.6631625783    3.6234407869
H       -3.8617186823   -4.5850142084    1.6038676837
H        0.1412259898   -6.7117463964    2.3550698885
H       -3.6955076228   -7.2327275575   -1.8491962273
H       -2.6128321586   -2.0379909975   -0.5967931063
H       -0.8657909162   -1.4735689337    0.8286760737
H       -1.2918077857   -5.1212769490    1.0314478820
23   

C       -4.9085741260   -7.1296489695    0.5620937342
C        1.3786708952   -5.0749553547    2.9588595622
C       -3.7145291590   -4.8816015735    0.5658232904
C        0.2453204496   -5.6025304664    2.4279179498
C       -3.2479424788   -6.4319953239   -1.1355180804
C       -3.9824595637   -6.1955526255   -0.0012448240
C       -2.7823596848   -4.1728936296   -0.1513889512
C        1.6570839639   -3.6708177504    2.7796333668
C       -0.2880137047   -3.3865401098    1.5822624230
C       -2.2549737479   -2.8167435636    0.1081130942
C       -1.1828331683   -2.4930368062    0.8531899286
N       -5.6556743406   -7.8935818400    1.0244247030
N        0.7878675234   -2.8602569477    2.0857093108
N       -0.5961268646   -4.7408899654    1.7265978831
O        2.6782160991   -3.1970634477    3.2474021310
S       -2.2062979533   -5.0771366056   -1.5547681143
H        2.0881207536   -5.6696307942    3.5164854306
H       -4.2063248764   -4.5043029020    1.4577084394
H        0.0178231631   -6.6585447260    2.5547627369
H       -3.3028880894   -7.3469827173   -1.7151886167
H       -2.7872437547   -1.9976614736   -0.3655839954
H       -0.9125728849   -1.4453175392    0.9069160086
H       -1.4618975688   -5.0548976391    1.3009697520
23   

C       -5.0120338257   -7.1111435877    0.3759722180
C        1.4319687352   -5.0596345197    2.9119852450
C       -3.8395716203   -4.8549817108    0.4941284008
C        0.2158533029   -5.5478296882    2.5550674736
C       -3.0578068523   -6.4835577192   -1.0072469536
C       -3.9952214881   -6.1976693123   -0.0473749204
C       -2.7893796781   -4.1723635583   -0.0686024057
C        1.7649530412   -3.6908816667    2.5996632579
C       -0.2875306754   -3.3645763809    1.6119508865
C       -2.3132658330   -2.8046981986    0.2249111366
C       -1.2142037863   -2.4712279298    0.9249885105
N       -5.8342138369   -7.8572970692    0.7264846921
N        0.8664487869   -2.8741762559    1.9514402337
N       -0.6536623400   -4.6824181557    1.8940946983
O        2.8599130832   -3.2542764821    2.9099989581
S       -1.9545517025   -5.1419693591   -1.2877230133
H        2.1685673525   -5.6604222040    3.4261791529
H       -4.4900082431   -4.4414560777    1.2590360366
H       -0.0534144973   -6.5765199127    2.7838176211
H       -3.0012095664   -7.4265072749   -1.5399531939
H       -2.9345625799   -1.9900010166   -0.1339370053
H       -0.9426571436   -1.4232159771    0.9618914004
H       -1.5760480610   -4.9705044014    1.5849146216
23   

C       -5.8349221172   -6.1548218944    0.4978754663
C        0.9829613300   -5.0683753643    3.3132563691
C       -4.0805507456   -4.3326850754    0.2144114976
C       -0.3533728304   -5.2120139431    3.1170998655
C       -3.5489335544   -6.5460479573   -0.3662818253
C       -4.5257966356   -5.7161071620    0.1220048456
C       -2.7808332314   -4.1613058387   -0.1969907950
C        1.7142800396   -4.1017952359    2.5300403741
C       -0.1992232240   -3.4882481452    1.4110966812
C       -1.9946726664   -2.9152065596   -0.2496634384
C       -0.8463385153   -2.6578933702    0.4031810305
N       -6.8977362428   -6.5124045771    0.8113900891
N        1.0766340828   -3.3243699531    1.5900034431
N       -0.9500751259   -4.4041721346    2.1510615418
O        2.9154414257   -3.9797985377    2.6976603112
S       -2.0576198353   -5.6857778468   -0.7279832070
H        1.5273770906   -5.6546082433    4.0398200684
H       -4.7152539048   -3.5259700313    0.5679082743
H       -0.9209530933   -5.9345311589    3.6992257752
H       -3.6767723144   -7.6120780922   -0.5185087373
H       -2.4159187885   -2.1045384352   -0.8359985013
H       -0.2978406713   -1.7654342734    0.1278010862
H       -1.9377011973   -4.4636691912    1.9273419174
23   

C       -5.8964287025   -6.1723351188    0.1927414082
C        1.1136093584   -5.0191942129    3.2643816460
C       -4.1349359169   -4.3387818612    0.0778744917
C       -0.2426082859   -5.0804114357    3.2164932456
C       -3.4977202958   -6.5737348244   -0.2652225555
C       -4.5473918311   -5.7335506969    0.0052833904
C       -2.7846445017   -4.1673659525   -0.1217583624
C        1.8155254699   -4.1326768525    2.3676004852
C       -0.1643966869   -3.4417184397    1.4252696916
C       -2.0392274859   -2.9018557203   -0.1500222404
C       -0.8660428283   -2.6210437912    0.4493075904
N       -6.9932178882   -6.5293248347    0.3524636228
N        1.1305009577   -3.3533225050    1.4633391135
N       -0.8888557139   -4.2712180350    2.2837475064
O        3.0328923022   -4.0838883849    2.4040008972
S       -1.9750386915   -5.7098924091   -0.4367490210
H        1.6956435766   -5.6135123608    3.9543254265
H       -4.8278972969   -3.5243811057    0.2640882872
H       -0.7876580564   -5.7417507225    3.8862552943
H       -3.5901939662   -7.6493047695   -0.3668224389
H       -2.5144885232   -2.0831652260   -0.6812601729
H       -0.3396595471   -1.7261990652    0.1409195560
H       -1.8961198477   -4.2749016372    2.1667117329
23   

C       -5.9315236043   -6.2210762471   -0.1145132565
C        1.2331254596   -4.8326948189    3.1946317300
C       -4.2153092511   -4.3427267752   -0.0492620077
C       -0.1191366815   -4.8257390262    3.3257153201
C       -3.4821679430   -6.5728315844   -0.1269531904
C       -4.5798326351   -5.7518068724   -0.0969628766
C       -2.8534702361   -4.1378474805   -0.0185599096
C        1.8505039136   -4.0296039986    2.1665741378
C       -0.2030478803   -3.2909591443    1.4465063509
C       -2.1759453275   -2.8410428053   -0.0274044152
C       -0.9928834490   -2.4976805937    0.5197457641
N       -7.0317689854   -6.6024790493   -0.1223972311
N        1.0881216663   -3.2642719458    1.3139442681
N       -0.8461983308   -4.0329743871    2.4391267507
O        3.0630005140   -4.0427700887    2.0429470248
S       -1.9717755861   -5.6724176373   -0.0928587887
H        1.8737122663   -5.4211849526    3.8360214529
H       -4.9484483896   -3.5425808606   -0.0464940946
H       -0.5998962791   -5.4233477484    4.0969143642
H       -3.5329698260   -7.6549881833   -0.1699971087
H       -2.7116692552   -2.0394429792   -0.5260819209
H       -0.5231147368   -1.5815502216    0.1841502532
H       -1.8587359017   -3.9886000940    2.4559895353
23   

C       -5.9311262480   -6.2364325416   -0.4629427211
C        1.3106588772   -4.8551599519    3.1870107386
C       -4.2299689834   -4.3649982741   -0.1762789131
C       -0.0107036304   -4.7275432020    3.4767116453
C       -3.5326237412   -6.5979616126    0.0238703912
C       -4.6013858764   -5.7725657517   -0.2095091906
C       -2.8970837661   -4.1595119234    0.1108217185
C        1.8569059229   -4.1634677572    2.0440685960
C       -0.2073533935   -3.2991533246    1.5246572016
C       -2.2385632864   -2.8584407586    0.1328959242
C       -1.0451988291   -2.5009424778    0.6484871620
N       -7.0145642569   -6.6133636483   -0.6636899884
N        1.0560395382   -3.3856998008    1.2395454434
N       -0.7791406010   -3.9264747761    2.6331616822
O        3.0404543009   -4.2848036040    1.7794600203
S       -2.0447684523   -5.7020936597    0.2977304113
H        1.9784430784   -5.4596262304    3.7843272116
H       -4.9377686380   -3.5654743239   -0.3692897367
H       -0.4366602273   -5.2398645339    4.3364206530
H       -3.5909589907   -7.6804280592    0.0364598787
H       -2.7889499087   -2.0570958043   -0.3498427462
H       -0.5990820993   -1.5757885591    0.3060051182
H       -1.7740262304   -3.7921805733    2.7711933514
23   

C       -5.0518829053   -6.7219413150   -1.8893292518
C        1.3106599049   -4.8219178047    3.2612767414
C       -3.3874579789   -4.8600859352   -1.3969714360
C        1.2960789510   -5.3364504113    2.0037621749
C       -3.6037263283   -6.6426156716    0.1142889764
C       -4.0478796044   -6.1156759680   -1.0695375917
C       -2.4381355974   -4.4809708586   -0.4702372340
C        0.6446427293   -3.5685966014    3.5233538237
C       -0.0384486002   -3.4234872850    1.3347397509
C       -1.7053181007   -3.2237986619   -0.5244066598
C       -0.7606210701   -2.7164126152    0.2939963317
N       -5.8655834740   -7.2179299753   -2.5587926942
N       -0.0191217571   -2.8983458410    2.5216004872
N        0.6192588234   -4.6144640722    1.0214619306
O        0.6604541254   -3.1058119052    4.6507740732
S       -2.3686949262   -5.6430430028    0.8661816637
H        1.8082422291   -5.3164092613    4.0834789758
H       -3.6357674950   -4.2808881097   -2.2802908995
H        1.7967887590   -6.2780278735    1.7899167618
H       -3.9709024550   -7.5673185221    0.5447445319
H       -2.0033770939   -2.5615177933   -1.3310112826
H       -0.5854396826   -1.6484598089    0.2645279078
H        0.5582309891   -4.9319847810    0.0612475427
