30

C     -0.96244   -3.10015    7.04083
C      1.90488   -1.44104    0.11428
C     -1.12726   -3.51119    5.71363
C      0.21904   -2.44878    7.41118
C      0.77043   -1.32499    0.93462
C      3.10134   -1.84754    0.68659
C     -0.13129   -3.27547    4.76385
C      1.21170   -2.19196    6.46420
C      0.82946   -1.63124    2.28642
C      3.19727   -2.16320    2.05751
C      1.04578   -2.59846    5.12881
C      2.03386   -2.07434    2.88459
C      4.49961   -2.56025    2.62369
C      6.76872   -3.06394    2.19639
N      2.10439   -2.37031    4.22810
O      4.73238   -2.75475    3.81826
O      5.47134   -2.69613    1.68926
H     -1.73926   -3.29090    7.77602
H      1.85135   -1.20257   -0.94359
H     -2.03062   -4.03769    5.41588
H      0.36541   -2.12754    8.43928
H     -0.17045   -0.97765    0.51440
H      3.99612   -1.92602    0.08004
H     -0.25320   -3.64041    3.74942
H      2.12125   -1.66862    6.74869
H     -0.05073   -1.49969    2.90415
H      7.41445   -3.12150    1.32009
H      6.72141   -4.03008    2.70406
H      7.13484   -2.30876    2.89588
H      3.05044   -2.50696    4.57897
