18

C     -0.50556    0.82383   -1.78030
C     -0.99603    0.40666   -2.97958
C     -0.83639   -0.04023   -0.67679
C     -1.60992   -1.13333   -1.09332
C     -0.47159    0.12422    0.72990
C     -3.01199   -3.14401   -0.79250
N      0.33827    1.19774    1.05698
N     -2.08012   -2.13953   -0.31983
O     -0.88874   -0.63354    1.62705
S     -1.90881   -1.08460   -2.82011
H      0.05898    1.74591   -1.68244
H     -0.90482    0.87292   -3.95115
H     -3.95955   -2.70248   -1.13255
H     -3.22367   -3.83723    0.02321
H     -2.58103   -3.71701   -1.62287
H      0.71793    1.15569    1.99558
H      0.95722    1.57616    0.35239
H     -1.92521   -1.98057    0.67642
