34

C     -5.42251   -0.44988   -0.68944
C     -5.32504    0.76357    0.05063
C     -4.41403   -0.83461   -1.53032
C     -4.20303    1.52720   -0.10410
C     -3.21438   -0.04332   -1.70377
C     -1.36914    2.24050    0.34135
C     -0.19136    1.31393    2.26725
C     -0.44033   -0.10091    0.29990
C     -0.96485    0.27972    3.08717
C     -1.21222   -1.11990    1.13914
C     -1.46698   -2.06795    3.34393
C     -2.00092    2.02316   -1.04011
N     -3.18291    1.14974   -0.93831
N     -0.60762    1.23971    0.86485
N     -0.78157   -1.06508    2.53735
O     -2.26049   -0.34876   -2.43390
O     -1.60058    3.29821    0.93890
H     -6.30652   -1.07461   -0.58408
H     -6.11274    1.09145    0.71888
H     -4.45966   -1.75275   -2.10626
H     -4.04802    2.46134    0.42645
H     -0.37987    2.32289    2.63122
H      0.88252    1.10273    2.32324
H      0.62724   -0.34846    0.33063
H     -0.76614   -0.14256   -0.73724
H     -0.59805    0.28999    4.11944
H     -2.03386    0.56906    3.10880
H     -2.29775   -0.92518    1.03793
H     -1.01953   -2.12432    0.74774
H     -1.08739   -2.03874    4.37035
H     -1.27047   -3.06516    2.93737
H     -2.56298   -1.91925    3.37702
H     -1.33166    1.57396   -1.77164
H     -2.31108    3.00773   -1.39332
