36

C      0.94925   -0.03628    0.32470
C      0.81892   -0.46614    3.48995
C     -0.00880    0.75184    3.91416
C      2.02297   -0.01503    2.65513
C     -0.43841    1.54701    2.68223
C      1.16557   -1.79159   -1.37360
C      3.20168   -1.00692   -0.29952
C      1.73889   -1.39008   -2.73162
C      3.75467   -0.61604   -1.67290
C      1.59269    0.83116    1.43697
C      3.76954   -1.16036   -4.02357
N      0.73978    1.93386    1.88022
N      1.74042   -0.96669   -0.30855
N      3.20171   -1.47475   -2.71792
O     -0.24283    0.09720    0.03200
H      1.16645   -1.02670    4.36542
H      0.19364   -1.14918    2.90040
H     -0.89623    0.44216    4.47781
H      0.59398    1.39145    4.57154
H      2.67688    0.60909    3.27556
H      2.60613   -0.88220    2.33376
H     -1.15624    0.95549    2.09921
H     -0.93583    2.47372    2.98977
H      0.08432   -1.66409   -1.35669
H      1.41148   -2.84117   -1.17045
H      3.52510   -2.02763   -0.05889
H      3.60705   -0.34163    0.45897
H      1.35614   -2.06826   -3.50219
H      1.39250   -0.36859   -2.98077
H      3.52670    0.45304   -1.85888
H      4.84503   -0.72625   -1.66563
H      2.49096    1.29462    1.01045
H      3.37218   -1.85182   -4.77339
H      4.85724   -1.28174   -3.99265
H      3.54676   -0.12836   -4.35469
H      0.41000    2.43369    1.05760
