24

C      0.98108    0.90588    0.20732
C      0.50956   -0.19473   -0.43801
C      1.69738    2.02929   -0.38199
C      0.00312   -0.80149    1.86929
C     -0.28964   -1.16236    0.39550
C     -2.47337    0.22980    0.18159
C      2.61908    2.92576   -2.39569
C     -1.78814   -1.13042    0.00969
O      2.06749    3.02889    0.20479
O      0.62268   -0.49334   -1.74746
O      1.91875    1.84738   -1.73636
S      0.59144    0.95243    1.95009
H     -0.88249   -0.90239    2.50015
H      0.79269   -1.43957    2.27292
H      0.07532   -2.17589    0.19205
H     -2.43638    0.57836    1.21755
H     -3.52534    0.16348   -0.11430
H     -1.99900    0.99685   -0.43824
H      2.70851    2.62077   -3.43833
H      3.60493    3.06363   -1.94741
H      2.04851    3.85278   -2.31136
H     -1.87530   -1.45740   -1.03223
H     -2.30128   -1.88526    0.61788
H      1.12095    0.23566   -2.17543
