35

C      1.26069   -1.55230   -0.14512
C      0.18636   -1.32337    0.72104
C      2.73535   -1.73879    1.75219
C      2.54626   -1.74832    0.36225
C      0.37676   -1.28467    2.10865
C      1.67734   -1.51634    2.63254
C     -4.24107   -0.10280    3.33127
C      1.14600   -2.14596    4.90753
C      3.71676   -2.02121   -0.55905
C     -2.80222   -0.43310    3.74362
C      3.96668   -3.52635   -0.62903
C     -1.92667   -0.72118    2.53431
N      5.16953   -3.83872   -1.53307
O      1.98533   -1.45538    3.95877
O     -0.59820   -1.00845    3.00962
H      1.08387   -1.54930   -1.21839
H     -0.79683   -1.14437    0.30302
H      3.72040   -1.87825    2.19284
H     -4.27997    0.78327    2.68819
H     -4.70367   -0.93378    2.78725
H     -4.85728    0.10014    4.21144
H      1.77106   -2.29557    5.78925
H      0.83195   -3.11725    4.51067
H      0.26871   -1.55120    5.16200
H      3.50371   -1.63373   -1.56230
H      4.61787   -1.51335   -0.19177
H     -2.78843   -1.30567    4.40608
H     -2.36575    0.40144    4.30286
H      3.11700   -4.06353   -1.05362
H      4.20455   -3.94867    0.34844
H     -2.30769   -1.58398    1.97239
H     -1.89094    0.14569    1.86200
H      5.36165   -4.84663   -1.59133
H      6.01900   -3.37835   -1.18372
H      5.01064   -3.49530   -2.48820
