29

C      1.23797    2.28298   -0.24114
C      1.76116    1.82660    0.97491
C      0.39626    1.46057   -0.99537
C      1.45646    0.53855    1.43158
C      0.07716    0.17024   -0.55250
C      0.63109   -0.27758    0.66318
C     -0.85532   -1.88119   -0.96097
C      0.08325   -2.48844    0.06853
C      4.66172   -2.11533   -0.39073
C      1.40529   -2.91780   -0.59066
C      2.38563   -3.51287    0.42212
N     -0.82388   -0.63148   -1.27503
N     -1.66868   -2.76139   -1.64336
O      0.30599   -1.53895    1.12361
S      4.05182   -3.83293   -0.26390
H      1.47837    3.28118   -0.59667
H      2.40821    2.46760    1.56752
H     -0.03684    1.80303   -1.93114
H      1.85019    0.15988    2.37093
H     -0.38510   -3.34473    0.56495
H      5.70706   -2.17219   -0.70346
H      4.60877   -1.61355    0.57958
H      4.10608   -1.53547   -1.13159
H      1.84423   -2.04085   -1.07551
H      1.18963   -3.64271   -1.38187
H      2.48451   -2.85911    1.29291
H      2.02733   -4.48335    0.78169
H     -2.36660   -2.31430   -2.22952
H     -2.00369   -3.56993   -1.13422
