31

C     -0.07865   -3.33970    0.40045
C      3.48335   -2.83081   -0.63275
C     -0.55715   -2.04884    0.36927
C      3.96400   -4.11662   -0.60076
C      1.60394   -1.22526   -0.32482
C      1.78775   -4.95655    0.09780
C      2.12871   -2.54482   -0.30016
C      1.27490   -3.62964    0.07045
C      0.28693   -0.96050    0.00417
C      3.10972   -5.19529   -0.23207
C     -1.38608    0.62227   -1.06184
C     -0.72320    0.94457    1.36027
C      2.91443   -7.55023    0.11866
C     -0.26509    0.45338   -0.01972
O     -2.34960    1.33843   -0.91354
O     -1.20927   -0.05796   -2.22780
O      3.70875   -6.42257   -0.24037
H     -0.74066   -4.15718    0.67690
H      4.14313   -2.01376   -0.91507
H     -1.59807   -1.85497    0.61703
H      4.99540   -4.34531   -0.85231
H      2.26607   -0.40767   -0.60591
H      1.12010   -5.76294    0.38113
H     -1.53639    0.32564    1.74867
H      0.11109    0.89964    2.06593
H     -1.08862    1.97157    1.29764
H      3.57449   -8.41548    0.04868
H      2.07112   -7.67732   -0.57111
H      2.53809   -7.45987    1.14497
H      0.53692    1.11682   -0.37102
H     -0.43739   -0.64816   -2.13867
