33

C     -2.19952   -0.00668    2.70596
C     -2.51631    1.04020    1.82865
C     -1.14131   -0.87973    2.42234
C     -1.77576    1.22556    0.65467
C     -0.40047   -0.69192    1.25384
C     -0.71727    0.35853    0.38123
C     -0.27696    0.19364   -3.27224
C      0.76712   -1.49147    0.71693
C      0.19039    0.33723   -0.83128
C      1.37811   -0.55846   -0.35884
C      2.13935   -1.27356   -1.47101
C     -1.21581    1.18591   -6.03162
C     -1.21827   -0.44764   -4.31082
N     -0.54248   -0.18992   -1.98771
O      0.61869    0.97951   -3.56930
O     -0.89888   -0.15028   -5.64273
H     -2.77909   -0.13847    3.61628
H     -3.33691    1.71261    2.06523
H     -0.90059   -1.68876    3.10856
H     -2.01757    2.03655   -0.02876
H      1.49224   -1.76388    1.49056
H      0.41556   -2.43058    0.26708
H      0.54594    1.32602   -1.12855
H      2.06587    0.12302    0.15717
H      1.48913   -1.97372   -2.00622
H      2.97671   -1.84578   -1.05679
H      2.53458   -0.56200   -2.20110
H     -1.00103    1.25469   -7.10021
H     -0.60793    1.91399   -5.48666
H     -2.28434    1.39548   -5.86755
H     -1.15591   -1.53746   -4.21230
H     -2.25445   -0.15223   -4.07039
H     -1.30829   -0.82871   -1.81116
