29   

C        3.0827048107   -2.8217955709    0.6819695396
C        2.4556825914   -1.6310186640    0.3063194789
C        2.8673839173   -3.3459157507    1.9592510889
C        1.6121743366   -0.9684502338    1.2051904448
C        2.0308504143   -2.6772642394    2.8600250550
C       -0.1577455499   -4.4163158715    5.7023312967
C       -0.0377629214   -5.6847753359    5.1287148139
C       -1.3789152172   -3.6781668648    3.7571546555
C        1.3909331718   -1.4815425091    2.4939293585
C       -0.8177604141   -3.3955087478    5.0108846770
C       -0.5735511583   -5.9593796542    3.8638638369
C       -1.2571974879   -4.9434942983    3.1715083412
C        0.5091501165   -0.7873169015    3.4275816395
C        0.3878060838   -0.8933446838    4.8032310948
O       -2.2147205676   -1.0958469123    5.3467311006
O       -0.6358618288   -1.7070659935    7.1429247145
S       -0.9261336337   -1.7117408648    5.7003690675
Cl      -0.3814027376   -7.5553166043    3.1717056939
Cl      -1.9480778990   -5.2292138202    1.5886825579
H        3.7341604959   -3.3369852434   -0.0152438659
H        2.6234245011   -1.2193707360   -0.6826575114
H        3.3487115288   -4.2719105936    2.2528809958
H        1.1350892127   -0.0447514349    0.8964622711
H        1.8740168898   -3.0979709563    3.8466502752
H        0.2668474313   -4.2216926850    6.6844558522
H        0.4794986714   -6.4709219466    5.6661320996
H       -1.9104914997   -2.9003091988    3.2159656483
H       -0.1567239244   -0.0574498153    2.9776258126
H        1.1756152250   -0.5074175079    5.4304764885
29   

C        2.8590989020   -3.1018709718    0.8812190328
C        2.1717215478   -1.9876133089    0.3940684578
C        2.8006770010   -3.4115593373    2.2421172474
C        1.4214274206   -1.1898079052    1.2652012989
C        2.0565932575   -2.6081294051    3.1130894401
C       -0.0688329249   -4.3959113039    5.5514000264
C        0.1165864467   -5.6109789133    4.8865659419
C       -1.2398888180   -3.5466502851    3.6210022609
C        1.3501342919   -1.4909951026    2.6357523453
C       -0.7338047915   -3.3440527979    4.9132751556
C       -0.3570747140   -5.8005199641    3.5818457599
C       -1.0493383719   -4.7559333960    2.9432813282
C        0.5415697750   -0.6668667387    3.5329816962
C        0.3628656861   -0.7591282830    4.8918645275
O       -2.2272562774   -1.1359437101    5.4094052063
O       -0.6265092790   -1.8002068065    7.1584496312
S       -0.9112073709   -1.7173103522    5.7170195953
Cl      -0.0762982215   -7.3270232659    2.7733966800
Cl      -1.6611620405   -4.9340064215    1.3129147733
H        3.4361487551   -3.7235043502    0.2055815087
H        2.2177125088   -1.7422155112   -0.6610802395
H        3.3314660781   -4.2762484489    2.6239587632
H        0.8911581035   -0.3322844347    0.8658583542
H        2.0251477001   -2.8634919489    4.1657686172
H        0.3117836986   -4.2653245585    6.5616813058
H        0.6393451304   -6.4205058164    5.3821264436
H       -1.7747156610   -2.7452626447    3.1191706847
H        0.0258682832    0.1667531307    3.0667193866
H        0.9931103983   -0.1870321482    5.5544734295
29   

C        2.7120404170   -3.3434086890    1.1798142467
C        1.8927413219   -2.3836124431    0.5806415501
C        2.8500366697   -3.3665640890    2.5695483354
C        1.2056806608   -1.4550854052    1.3707141171
C        2.1641003955   -2.4362486142    3.3579078683
C        0.0649016007   -4.3430086245    5.2749190980
C        0.2755022171   -5.4850235470    4.4977038045
C       -1.2184143890   -3.3827355441    3.4726388897
C        1.3233561206   -1.4752888117    2.7703028578
C       -0.6666434430   -3.2694205207    4.7570599097
C       -0.2374111197   -5.5786697489    3.1975288844
C       -1.0001214110   -4.5158449506    2.6811917657
C        0.5569883417   -0.5315974344    3.5915111066
C        0.3097579057   -0.6052979790    4.9287815607
O       -2.2253324853   -1.1870355441    5.5220839226
O       -0.5132978734   -1.9181662153    7.1198084206
S       -0.8679583327   -1.7244330323    5.7045950168
Cl       0.0841293524   -7.0092544955    2.2423626435
Cl      -1.6615979297   -4.5743656401    1.0616107443
H        3.2391386658   -4.0672956827    0.5682601968
H        1.7850118844   -2.3621071222   -0.4980376155
H        3.4863501485   -4.1084677342    3.0382933298
H        0.5665464420   -0.7245893619    0.8872347268
H        2.2813252508   -2.4698078293    4.4351247103
H        0.4803334700   -4.2839114600    6.2779719780
H        0.8518456653   -6.3097931120    4.8994530049
H       -1.8061065316   -2.5654808893    3.0648736496
H        0.1763112586    0.3500586940    3.0856385647
H        0.7146112812    0.1417887595    5.5935890403
29   

C        2.6383027850   -3.4113003985    1.2928372851
C        1.8111995988   -2.4788442956    0.6619198949
C        2.8051116237   -3.3638867406    2.6789175783
C        1.1445489562   -1.5075670748    1.4172635062
C        2.1382314436   -2.3917170369    3.4325755703
C        0.0749106263   -4.3635869980    5.1655004342
C        0.2886592721   -5.4891638097    4.3660523986
C       -1.2221364584   -3.3755115581    3.3883745252
C        1.2882190430   -1.4597054698    2.8135285382
C       -0.6651248252   -3.2838767944    4.6721014270
C       -0.2293516348   -5.5605713354    3.0667668603
C       -1.0002522916   -4.4921683998    2.5742254635
C        0.5491190935   -0.4630326373    3.6015159598
C        0.1777163589   -0.5370859577    4.9009296734
O       -2.2813187366   -1.3051948200    5.5729210286
O       -0.4672473874   -1.9894262186    7.0582289185
S       -0.8888016516   -1.7705383933    5.6650201126
Cl       0.0950869828   -6.9714586100    2.0837337409
Cl      -1.6694877504   -4.5246735301    0.9571742790
H        3.1496871828   -4.1681440615    0.7084500838
H        1.6819217275   -2.5115414727   -0.4141113336
H        3.4489267696   -4.0832943053    3.1718092448
H        0.4999665693   -0.7976119327    0.9109406274
H        2.2775248145   -2.3676973582    4.5076475624
H        0.4922177148   -4.3230443293    6.1687116742
H        0.8703877464   -6.3184255061    4.7503805641
H       -1.8184229357   -2.5550907822    3.0003641481
H        0.3117641747    0.4650492647    3.0911474111
H        0.3754602982    0.3024274756    5.5494971447
29   

C        3.1676539526   -3.5334462157    1.9163638237
C        2.1351563670   -3.0602528161    1.1019228899
C        3.3175246788   -3.0282936898    3.2105819172
C        1.2538766340   -2.0843672666    1.5812671058
C        2.4326548450   -2.0566451208    3.6904316532
C        0.1842474340   -4.2671269092    4.4960816860
C        0.0636546676   -5.2718877322    3.5353409191
C       -1.7897353105   -3.2031772816    3.6097786020
C        1.3863902772   -1.5765131221    2.8832335265
C       -0.7305688537   -3.2087661917    4.5275259789
C       -0.9714978898   -5.2471559293    2.5941901167
C       -1.9149882660   -4.2036155501    2.6368354594
C        0.4412454624   -0.5694488990    3.3935683275
C        0.0186328725   -0.4506164304    4.6670491825
O       -1.7868683100   -1.4782320970    6.3419827286
O        0.5429037518   -2.1440268078    6.6846079006
S       -0.5093428163   -1.8299401467    5.7032337407
Cl      -1.0656430429   -6.5071849057    1.3833769973
Cl      -3.2294619224   -4.1239115175    1.4840693497
H        3.8518795229   -4.2879157334    1.5442466478
H        2.0152443309   -3.4509858532    0.0976474669
H        4.1200610359   -3.3872756535    3.8452957781
H        0.4535665947   -1.7334651597    0.9392779277
H        2.5618377937   -1.6742831414    4.6983377563
H        1.0067269349   -4.2957363858    5.2064245458
H        0.7894505762   -6.0757959005    3.5080174603
H       -2.5197411813   -2.3994761810    3.6348168264
H        0.0786711745    0.1633539780    2.6798959418
H       -0.2216004959    0.5206640196    5.0713856993
29   

C        3.1551147384   -3.5512157099    1.9809248631
C        2.1284484883   -3.0785931233    1.1586897775
C        3.3188390195   -3.0182604708    3.2623957853
C        1.2672689963   -2.0753316252    1.6175696018
C        2.4533928580   -2.0195559010    3.7218811977
C        0.1933129221   -4.2720061652    4.4212814406
C        0.0500175344   -5.2761066344    3.4631455694
C       -1.7967683438   -3.2031854405    3.5784969133
C        1.4135482124   -1.5401628956    2.9068730432
C       -0.7192077914   -3.2124673738    4.4743682473
C       -1.0055611063   -5.2492259427    2.5451853619
C       -1.9451862785   -4.2031673619    2.6081440530
C        0.4914195913   -0.4965766593    3.3940130478
C       -0.0667401049   -0.4280106557    4.6129763685
O       -1.7228730131   -1.5482876516    6.3760140903
O        0.6447349361   -2.1316468955    6.5668174050
S       -0.4748764917   -1.8412608197    5.6546260127
Cl      -1.1298673292   -6.5100412501    1.3378926065
Cl      -3.2846539391   -4.1209166262    1.4846953164
H        3.8242435553   -4.3265499634    1.6246067624
H        1.9975746380   -3.4905512931    0.1643172336
H        4.1169760698   -3.3762722373    3.9032006947
H        0.4714815300   -1.7235854781    0.9704185047
H        2.5929242462   -1.6145940140    4.7195921021
H        1.0308160502   -4.3028997269    5.1137489892
H        0.7733842830   -6.0815216337    3.4203960995
H       -2.5245531777   -2.3982610813    3.6195187847
H        0.2407904802    0.2911438076    2.6908091780
H       -0.4495025784    0.5116030140    4.9809127851
29   

C        3.1275709822   -3.5690430530    2.0181367575
C        2.1015646442   -3.0810681813    1.2039876447
C        3.3176009346   -3.0296325542    3.2934494016
C        1.2679351312   -2.0556992700    1.6646967798
C        2.4790378106   -2.0088947654    3.7547798244
C        0.2037204549   -4.2808645317    4.4061166195
C        0.0622449448   -5.2909268400    3.4539564779
C       -1.7950321294   -3.2273240564    3.5650701497
C        1.4412729649   -1.5138681593    2.9476182170
C       -0.7149049681   -3.2266637013    4.4578236965
C       -0.9970607293   -5.2748652943    2.5400532856
C       -1.9417384361   -4.2332600822    2.6006253718
C        0.5488647022   -0.4412576017    3.4356859218
C       -0.1477296657   -0.4286973687    4.5801756972
O       -1.7123648438   -1.5977880204    6.3909869991
O        0.6770385912   -2.1087512951    6.5122641721
S       -0.4769931785   -1.8506471920    5.6335721607
Cl      -1.1197425223   -6.5434320050    1.3407295625
Cl      -3.2859632873   -4.1642957229    1.4819329587
H        3.7756170954   -4.3613881348    1.6603090320
H        1.9498049819   -3.4979468032    0.2146455081
H        4.1151020245   -3.3998040411    3.9280848057
H        0.4723814971   -1.6907363620    1.0245901181
H        2.6371861477   -1.5986974144    4.7475694212
H        1.0439162788   -4.3033955949    5.0955997023
H        0.7897265239   -6.0926889510    3.4129608613
H       -2.5268572593   -2.4260475175    3.6041051379
H        0.4154268962    0.4061007418    2.7708477634
H       -0.6436489305    0.4749322648    4.9000976158
29   

C        1.9929508819   -3.0252090609    0.8731625157
C        1.0931116509   -1.9558512815    0.8726497414
C        2.7099204964   -3.3288094429    2.0337720327
C        0.9060534313   -1.1967878684    2.0332352542
C        2.5258538105   -2.5647941144    3.1917433583
C       -0.2611895011   -3.9911352313    5.4253912952
C        0.1592850431   -5.2871381041    5.1152569384
C       -0.9294687941   -3.6838788055    3.1295108216
C        1.6157291648   -1.4970033359    3.2072990660
C       -0.7924957550   -3.1691194913    4.4270581763
C        0.0484653433   -5.7902070462    3.8127791110
C       -0.5110396533   -4.9802659143    2.8086200567
C        1.4060280251   -0.7056417971    4.4417799888
C        0.2770703249   -0.6177839738    5.1553639018
O       -1.9174152698   -0.8275146486    3.6143771607
O       -2.1290477784   -1.3929742160    5.9856428643
S       -1.2765517802   -1.4461422823    4.7877277856
Cl       0.6084520235   -7.4105947725    3.4612421730
Cl      -0.6806521668   -5.5581498170    1.1647373076
H        2.1322388880   -3.6191961015   -0.0233481993
H        0.5353243023   -1.7155446801   -0.0256320254
H        3.4058190816   -4.1601381791    2.0374915804
H        0.2000924196   -0.3719119143    2.0222339959
H        3.0830350617   -2.8146170725    4.0875854206
H       -0.1653954938   -3.6185464452    6.4415547918
H        0.5815603767   -5.9155639514    5.8902905485
H       -1.3527823880   -3.0623525245    2.3454103186
H        2.2841225941   -0.2118293072    4.8453298790
H        0.2489755425   -0.0137715921    6.0492745651
29   

C        2.0058659547   -3.0173967011    0.8419779622
C        1.0975144442   -1.9562508728    0.8807617390
C        2.7354165067   -3.3488426282    1.9869295772
C        0.9136152363   -1.2341072776    2.0649818645
C        2.5541822947   -2.6220802417    3.1691646781
C       -0.2803907735   -3.9695836610    5.4410529645
C        0.1474845607   -5.2670951903    5.1477148433
C       -0.9390238831   -3.6917470407    3.1385429927
C        1.6336162947   -1.5642902764    3.2254498053
C       -0.8098097260   -3.1612052740    4.4306062747
C        0.0462056317   -5.7851266612    3.8503008976
C       -0.5121534530   -4.9893109537    2.8342874887
C        1.4256990953   -0.8172853644    4.4828525855
C        0.2570139186   -0.5880982184    5.0975551352
O       -1.9577073662   -0.8389873851    3.5931111723
O       -2.1332705584   -1.3617553966    5.9757350125
S       -1.2969987932   -1.4340557103    4.7674585603
Cl       0.6168240131   -7.4061875137    3.5195964019
Cl      -0.6689022322   -5.5856112921    1.1957587779
H        2.1428649285   -3.5826643707   -0.0732558312
H        0.5310464985   -1.6930099505   -0.0056072012
H        3.4390867954   -4.1731636015    1.9595095169
H        0.2028326659   -0.4135344166    2.0812733346
H        3.1216216447   -2.8949236009    4.0517310245
H       -0.1910923872   -3.5847991887    6.4532928399
H        0.5687482075   -5.8848144774    5.9318563112
H       -1.3611720416   -3.0812379888    2.3451809754
H        2.3212956613   -0.4531585480    4.9758574581
H        0.2095917422    0.1021313973    5.9258516474
29   

C        2.0454126410   -3.0038596988    0.8246834056
C        1.1179176341   -1.9606049616    0.8843992224
C        2.7789552842   -3.3465128770    1.9637079226
C        0.9186687103   -1.2678611904    2.0834585176
C        2.5821194742   -2.6495397152    3.1613484674
C       -0.2970606723   -3.9445753085    5.4543967050
C        0.1417114606   -5.2390969707    5.1638136767
C       -0.9605260953   -3.6784291189    3.1517665227
C        1.6419007246   -1.6102842881    3.2391436890
C       -0.8334334835   -3.1430317317    4.4421142228
C        0.0447856599   -5.7607910718    3.8674862721
C       -0.5216170645   -4.9724879214    2.8500814749
C        1.4140846867   -0.9000541771    4.5103590949
C        0.2256777130   -0.5425296280    5.0241797964
O       -2.0413553651   -0.8477056945    3.6165107781
O       -2.1177148154   -1.3336653281    6.0120098551
S       -1.3288064744   -1.4169174453    4.7729807657
Cl       0.6309747637   -7.3768873830    3.5397654490
Cl      -0.6725243304   -5.5731226937    1.2126220546
H        2.1945127182   -3.5462225786   -0.1024376259
H        0.5486793780   -1.6883609178    0.0025242263
H        3.4979796893   -4.1567417860    1.9195903278
H        0.1930817191   -0.4607709390    2.1143084504
H        3.1530158032   -2.9324676759    4.0384696463
H       -0.2103357040   -3.5563281131    6.4656018607
H        0.5687790056   -5.8513859192    5.9490735111
H       -1.3888492629   -3.0737977327    2.3571826292
H        2.2985529942   -0.6430931940    5.0842760907
H        0.1707708537    0.2408617257    5.7644288108
29   

C        2.1004506571   -3.0168033800    0.8191623549
C        1.1511824896   -1.9935993768    0.8806740733
C        2.8271232507   -3.3591093569    1.9626327057
C        0.9235398014   -1.3204716862    2.0857399854
C        2.6015340688   -2.6822637000    3.1667795316
C       -0.3173976393   -3.9387861293    5.4486814761
C        0.1291771480   -5.2253706625    5.1359274698
C       -1.0182710692   -3.6513025981    3.1595555142
C        1.6397857365   -1.6628277964    3.2464335943
C       -0.8752064396   -3.1298667930    4.4538761187
C        0.0191230190   -5.7316875046    3.8345642410
C       -0.5704316853   -4.9368843514    2.8354467404
C        1.3773105948   -0.9788394459    4.5233383938
C        0.1853130969   -0.5072739618    4.9364785143
O       -2.1748747761   -0.8581578732    3.7068375079
O       -2.0681481449   -1.3279572447    6.1051945550
S       -1.3724491886   -1.4097516955    4.8113919302
Cl       0.6184255981   -7.3367790575    3.4778729533
Cl      -0.7375969227   -5.5181497489    1.1926417669
H        2.2717690574   -3.5438064202   -0.1129597829
H        0.5871816570   -1.7220667167   -0.0047665117
H        3.5632153624   -4.1537639568    1.9167856684
H        0.1804139173   -0.5295809541    2.1172300300
H        3.1674360518   -2.9661851685    4.0467806329
H       -0.2192903262   -3.5615969291    6.4631344838
H        0.5735441880   -5.8429825864    5.9073049722
H       -1.4643028792   -3.0412659545    2.3789614148
H        2.2311490387   -0.8112291582    5.1718000011
H        0.1350024773    0.3730629842    5.5585779904
29   

C        2.2159813970   -3.0960850527    0.8618809489
C        1.2201574938   -2.1165921552    0.8824424674
C        2.9349297127   -3.3793407003    2.0261205451
C        0.9388631269   -1.4281618418    2.0673542669
C        2.6543707476   -2.6882089299    3.2104844319
C       -0.2940516651   -3.9445761755    5.4073773656
C        0.1525197314   -5.2094913678    5.0174063337
C       -1.1472661115   -3.5834660166    3.1810158089
C        1.6462131362   -1.7119363057    3.2490636939
C       -0.9270381631   -3.1086892197    4.4819918849
C       -0.0313522304   -5.6672633707    3.7066300120
C       -0.6984088410   -4.8469226990    2.7790891722
C        1.3243839411   -1.0170007913    4.5043598840
C        0.1282838398   -0.4729685229    4.8271813230
O       -2.3860001696   -0.8648611621    3.9773403290
O       -1.8971349373   -1.3594615833    6.3247345640
S       -1.4112127850   -1.4088173065    4.9367836589
Cl       0.5745719661   -7.2440780627    3.2493427976
Cl      -0.9582679746   -5.3679259614    1.1282705987
H        2.4296046653   -3.6344755337   -0.0548625830
H        0.6620448535   -1.8915579959   -0.0195530678
H        3.7080927388   -4.1392121918    2.0116354143
H        0.1606617911   -0.6716177019    2.0670764274
H        3.2155915140   -2.9270293238    4.1067086596
H       -0.1357893159   -3.6033012633    6.4271012166
H        0.6562897689   -5.8467534981    5.7343828688
H       -1.6530880851   -2.9524146492    2.4556241578
H        2.1360061976   -0.8841812644    5.2123515715
H        0.0776264389    0.5152000224    5.2575658019
29   

C        2.6769528409   -3.3423007897    1.2095418448
C        1.4367113199   -2.7072681014    1.1136489739
C        3.4648403033   -3.1557059230    2.3481321745
C        0.9840387158   -1.8921573178    2.1566484658
C        3.0073345034   -2.3449826645    3.3934403274
C       -0.1473043247   -3.9494778537    4.9855039656
C        0.1562914258   -5.1446148312    4.3320082731
C       -1.7287875147   -3.4167046944    3.2438808469
C        1.7560300269   -1.7111318615    3.3170730880
C       -1.0746682672   -3.0604209160    4.4313784176
C       -0.4659189238   -5.4830374742    3.1249736465
C       -1.4286441575   -4.6132601906    2.5794628284
C        1.2673555624   -0.8976570741    4.4350585254
C        0.0007845896   -0.4420834512    4.6481393599
O       -2.6472965899   -0.8558690721    4.7481416385
O       -1.3129641393   -1.5648044632    6.6815700704
S       -1.3825302856   -1.4441575034    5.2166551981
Cl      -0.0303274918   -6.9743876391    2.3196064416
Cl      -2.2405229835   -4.9904793258    1.0758168290
H        3.0269975056   -3.9755215935    0.4017955476
H        0.8223646591   -2.8475473570    0.2312642989
H        4.4307168626   -3.6426584174    2.4223903400
H        0.0209567199   -1.4034782762    2.0621983973
H        3.6298282449   -2.2185152059    4.2722155224
H        0.3543561592   -3.6998258134    5.9168003976
H        0.8921664483   -5.8169376140    4.7567559854
H       -2.4690000038   -2.7470168012    2.8145684485
H        2.0120117002   -0.5756477251    5.1559929082
H       -0.2001920300    0.6177691391    4.6289004829
29   

C        3.0106100217   -3.2112023656    1.1642685382
C        1.6684284996   -2.8281284779    1.1084068688
C        3.7865685296   -2.8578718544    2.2710476607
C        1.1046980013   -2.0933534697    2.1570351498
C        3.2185883093   -2.1300530885    3.3230280188
C       -0.2837917701   -3.9985079684    4.9701363944
C       -0.1003241237   -5.2144148625    4.3105051355
C       -1.9591200967   -3.3868321319    3.3459314137
C        1.8688635228   -1.7415967136    3.2828036226
C       -1.2007499236   -3.0626486123    4.4792520005
C       -0.8324447277   -5.5261972737    3.1592916461
C       -1.7799081547   -4.6043589272    2.6756110739
C        1.2769913305   -1.0028857039    4.3975854594
C       -0.0020855130   -0.5246148487    4.5430945662
O       -2.6424675521   -0.7913246430    4.9279901610
O       -1.1428570545   -1.5483857602    6.7284071252
S       -1.3654795570   -1.4326158144    5.2783610517
Cl      -0.5520610200   -7.0505775637    2.3465873184
Cl      -2.7258152358   -4.9465762236    1.2435776889
H        3.4485164967   -3.7786967040    0.3505343367
H        1.0618545210   -3.0998954012    0.2516984388
H        4.8300766042   -3.1491084120    2.3150470710
H        0.0634004402   -1.8006216738    2.0918684210
H        3.8368558466   -1.8688778407    4.1747701452
H        0.2999709845   -3.7726738844    5.8589017307
H        0.6248556375   -5.9257147444    4.6879877370
H       -2.6910839575   -2.6788614377    2.9663926578
H        1.9466467164   -0.7687142149    5.2190445263
H       -0.2404900973    0.4817960749    4.2367367119
29   

C        3.4365492645   -2.9928042842    1.0959570017
C        2.0396926168   -2.9561439399    1.1021387073
C        4.1498833097   -2.4219845358    2.1532315555
C        1.3587972569   -2.3449563901    2.1608874032
C        3.4670164087   -1.8190311563    3.2157469778
C       -0.4924766337   -4.1049134222    4.9853552880
C       -0.4781475234   -5.3502583646    4.3554560568
C       -2.1911693465   -3.3611433649    3.4421962735
C        2.0632571542   -1.7704198418    3.2319095748
C       -1.3390588198   -3.0920180635    4.5221492933
C       -1.3103745984   -5.6133117282    3.2612300007
C       -2.1821877902   -4.6078716091    2.8023944878
C        1.3546585436   -1.1353721192    4.3402092845
C        0.0527815110   -0.6746322947    4.4313703258
O       -2.5565965586   -0.7083198950    5.0328797176
O       -0.9771581913   -1.5576863577    6.7277627139
S       -1.3104751745   -1.4436780373    5.2988724073
Cl      -1.2485598793   -7.1827870997    2.4891520070
Cl      -3.2480208378   -4.8858734759    1.4422975306
H        3.9649961844   -3.4610331864    0.2728637021
H        1.4818956252   -3.4003081100    0.2852607098
H        5.2339426679   -2.4440355144    2.1491858071
H        0.2751175309   -2.3242755104    2.1487165787
H        4.0373178466   -1.3780951624    4.0259740756
H        0.1622246379   -3.9208015726    5.8336410442
H        0.1884855740   -6.1256845994    4.7145734691
H       -2.8694321628   -2.5905760201    3.0850977269
H        1.9435360410   -0.9851051236    5.2396601635
H       -0.2252326796    0.2107952298    3.8818934617
