24   

C       -4.2534278096   -1.0920264762    5.2355939620
C       -4.4071515421   -0.5766746468    3.9336593995
C       -2.0771791952   -1.5829524290    4.7814503159
C       -2.2078360259   -1.0692330156    3.4642884185
C       -1.1513787710   -0.5771747403    1.2116694518
C       -0.0365808365   -0.5511808993    0.4173173485
C       -1.0318912658   -1.0975458541    2.5615122465
C       -0.9550030409    0.9589070366   -1.2983255327
C        1.3952921256    0.0127501895   -1.4849603337
N       -3.0894264519   -1.6005007112    5.6754413787
N       -3.4000587666   -0.5584713819    3.0427113854
N        0.1311845658    0.1350126058   -0.7389896955
O        0.0351782537   -1.5614853179    2.9578429999
H       -5.1061662329   -1.0763696826    5.9039485883
H       -5.3715579113   -0.1802505969    3.6385544939
H       -1.1226686544   -1.9851157888    5.1009850598
H       -2.0820368462   -0.1347567972    0.8866332067
H        0.8404161425   -1.0768415304    0.7878259398
H       -1.3031510732    1.6855056919   -0.5572733324
H       -1.7914923743    0.3231259757   -1.6060273418
H       -0.6053248792    1.5132030582   -2.1750052378
H        1.2664253584   -0.6714849663   -2.3299190960
H        2.1935054594   -0.3732803882   -0.8429001127
H        1.7122952679    0.9907462478   -1.8603104807
24   

C       -4.2328053582   -1.0207416571    5.2392375268
C       -4.4234420306   -0.6490386696    3.8939911524
C       -2.0487929101   -1.4885265516    4.7977484073
C       -2.2161961547   -1.1178830808    3.4375027571
C       -1.2022955628   -0.8069492570    1.1327491529
C       -0.0831200804   -0.7225167118    0.3445910135
C       -1.0511098473   -1.1927808280    2.5234116666
C       -0.9508921972    0.9906395563   -1.1961273468
C        1.3979953618    0.0531218665   -1.4427546552
N       -3.0462244751   -1.4447894083    5.7073963382
N       -3.4311736400   -0.6920446185    2.9874370643
N        0.1175053245    0.0964684538   -0.7163210281
O        0.0388039154   -1.5733031450    2.9453273004
H       -5.0749859663   -0.9610130151    5.9184036466
H       -5.4046427083   -0.3152329995    3.5775180968
H       -1.0761592233   -1.8232198006    5.1396387674
H       -2.1481554394   -0.4082809872    0.7949295519
H        0.7961609379   -1.2540643887    0.7013189222
H       -1.3315746067    1.6060084556   -0.3747006018
H       -1.7714243420    0.4041755293   -1.6219671422
H       -0.5705901964    1.6631831117   -1.9714493474
H        1.2862819163   -0.5299196597   -2.3627348803
H        2.1801565420   -0.4078884026   -0.8311483021
H        1.7263542999    1.0655962152   -1.6974561660
24   

C       -4.1918116519   -0.9233539215    5.2360089272
C       -4.4154478414   -0.6982007565    3.8636528047
C       -1.9949788948   -1.3405710595    4.8068946791
C       -2.1954950994   -1.1167263646    3.4194202624
C       -1.2221540780   -0.9951239950    1.0789230888
C       -0.1104440819   -0.8616522626    0.2803462004
C       -1.0389014641   -1.2300990674    2.4984524936
C       -0.9436274828    1.0239871672   -1.0615272697
C        1.3962226937    0.0896862726   -1.3983993995
N       -2.9819939481   -1.2474291566    5.7242351107
N       -3.4336931989   -0.7908389261    2.9494664649
N        0.1101841978    0.0671360986   -0.6809429263
O        0.0737505373   -1.5137840890    2.9366604481
H       -5.0271834690   -0.8304105572    5.9198393753
H       -5.4140738503   -0.4394141646    3.5317866320
H       -1.0042036121   -1.5968885153    5.1640683595
H       -2.1858885909   -0.6496360946    0.7327244760
H        0.7728890462   -1.4011992161    0.6145958301
H       -1.3418705420    1.5270294991   -0.1745443259
H       -1.7559143961    0.5045919581   -1.5800773269
H       -0.5426413291    1.7918057859   -1.7306472494
H        1.2862863053   -0.3883762960   -2.3772605166
H        2.1687033803   -0.4436424346   -0.8352231020
H        1.7366339144    1.1202793138   -1.5389483380
24   

C       -4.1570273705   -0.8153841181    5.2141494957
C       -4.4060981393   -0.7434030814    3.8297030790
C       -1.9466396652   -1.1674581819    4.7955362630
C       -2.1727155691   -1.0973534184    3.3958731668
C       -1.2278250986   -1.1769450052    1.0417766891
C       -0.1363085179   -1.0005074660    0.2132370898
C       -1.0210837146   -1.2459163426    2.4735240764
C       -0.9525201709    1.0246868941   -0.9108035472
C        1.3689768982    0.0973519688   -1.3739807344
N       -2.9274459266   -1.0287838962    5.7138698979
N       -3.4306936413   -0.8822325868    2.9146443208
N        0.0891567358    0.0159717419   -0.6496483034
O        0.1108584532   -1.4204964472    2.9188094106
H       -4.9887369841   -0.6929585650    5.8978043956
H       -5.4196382569   -0.5678480190    3.4886678522
H       -0.9405505030   -1.3375927890    5.1612233878
H       -2.2118766233   -0.9001088001    0.6906893969
H        0.7539317639   -1.5488435502    0.5130184083
H       -1.3497074427    1.4177386387    0.0305846085
H       -1.7681151052    0.5834320731   -1.4925918949
H       -0.5396761368    1.8658599553   -1.4765341035
H        1.2397688023   -0.2582558746   -2.4014211501
H        2.1348155563   -0.5154090832   -0.8878472087
H        1.7304261252    1.1301487603   -1.3946710843
24   

C       -4.1295111749   -0.7272798642    5.1704825498
C       -4.3954755576   -0.8134783352    3.7900730007
C       -1.9046594248   -0.9786066453    4.7548691888
C       -2.1477032675   -1.0672255062    3.3592061769
C       -1.2183900738   -1.3388691455    1.0146078211
C       -0.1552188538   -1.1293624677    0.1424300428
C       -0.9971777362   -1.2357045441    2.4386459039
C       -0.9420411256    1.0173351419   -0.7384934688
C        1.3330110477    0.0779046338   -1.3760783483
N       -2.8840219036   -0.8094059638    5.6697198221
N       -3.4215424508   -0.9832136117    2.8787718027
N        0.0728800027   -0.0445770503   -0.6234618472
O        0.1486817105   -1.2852054580    2.8791900494
H       -4.9611852356   -0.5887455786    5.8511004396
H       -5.4212760299   -0.7381773548    3.4487788106
H       -0.8863050811   -1.0464737130    5.1198534509
H       -2.2228898259   -1.1499498420    0.6628299301
H        0.7375715270   -1.6999094953    0.3874237323
H       -1.3034957457    1.3115572555    0.2521254221
H       -1.7854967175    0.6700892050   -1.3436860178
H       -0.5157467550    1.9057112263   -1.2150882643
H        1.1589618377   -0.1442363767   -2.4339652218
H        2.0876693709   -0.6176958358   -0.9953963441
H        1.7350919814    1.0915762904   -1.2836199823
24   

C       -4.1403161247   -0.9032869491    5.3205705613
C       -4.4568601407   -1.3011588821    4.0070985421
C       -2.1229580892   -0.1332746077    4.5980818788
C       -2.4168818095   -0.5305173491    3.2670469286
C       -1.6524061687   -0.7380593230    0.8556710597
C       -0.5977991070   -0.9828354996   -0.0419927085
C       -1.3905066287   -0.3283084912    2.2149040421
C       -0.2344069150    1.3599240129   -0.5997733726
C        0.9636003724   -0.4935581631   -1.8515198194
N       -2.9740156163   -0.3117991506    5.6316933412
N       -3.6125729182   -1.1189661487    2.9765136052
N       -0.0331895475   -0.0787168568   -0.8505829540
O       -0.2994292362    0.1545961670    2.5055833216
H       -4.8646214666   -1.0836232890    6.1060441791
H       -5.4130172159   -1.7756598053    3.8200672754
H       -1.1677619543    0.3316977062    4.8132323024
H       -2.5734388064   -1.2818865901    0.6987797796
H       -0.5198675563   -2.0110800527   -0.3828675750
H       -1.3002411946    1.5867128786   -0.4959664762
H        0.1520343572    1.9517741873   -1.4353254599
H        0.2895534680    1.6626674777    0.3125738769
H        0.7208726366   -0.0621123998   -2.8276207973
H        0.9860074185   -1.5827086317   -1.9582496950
H        1.9607244752   -0.1586958353   -1.5475679573
24   

C       -4.0873518144   -0.8266895165    5.3035675577
C       -4.4034288039   -1.3344424076    4.0284166244
C       -2.1119932241   -0.0341806142    4.4951302900
C       -2.4059545060   -0.5407460775    3.2013844181
C       -1.6704110245   -0.8971669345    0.8017764989
C       -0.6427459250   -1.0746836508   -0.1276012808
C       -1.4059907922   -0.3667819504    2.1185802547
C       -0.2746805345    1.3211378338   -0.5190044374
C        0.9792188093   -0.4433284508   -1.8355613879
N       -2.9419738421   -0.1687523562    5.5522075369
N       -3.5796354573   -1.1977354589    2.9744043382
N       -0.0356841461   -0.1021281923   -0.8251401556
O       -0.3404513897    0.1935170889    2.3611945454
H       -4.7945897754   -0.9746859538    6.1110409808
H       -5.3426287224   -1.8574584935    3.8916864772
H       -1.1746432422    0.4841835174    4.6611971615
H       -2.5461451604   -1.5243231908    0.7090347495
H       -0.6005197648   -2.0595844684   -0.5833486625
H       -1.3327857371    1.5011183550   -0.3045142458
H       -0.0025435960    1.9454851352   -1.3755974985
H        0.3266560859    1.6320001701    0.3409879282
H        0.7897457421    0.1047685828   -2.7637446298
H        0.9627917538   -1.5132772399   -2.0658583449
H        1.9766030579   -0.1869972482   -1.4636421565
24   

C       -4.0694581973   -0.7903714021    5.2720368369
C       -4.3630803631   -1.3817491234    4.0279847881
C       -2.1193091778    0.0212710259    4.4225887275
C       -2.3911791083   -0.5681775266    3.1592044598
C       -1.6434146842   -1.0349694144    0.7869596276
C       -0.6717114441   -1.1362251631   -0.2011565663
C       -1.3992329374   -0.4120430837    2.0656800810
C       -0.3022181786    1.2886625953   -0.4820700818
C        0.9888217268   -0.4173999244   -1.8324937184
N       -2.9478143080   -0.0810129000    5.4844429580
N       -3.5402933994   -1.2785596591    2.9693954938
N       -0.0237050764   -0.1245103156   -0.8044243313
O       -0.3618258672    0.2085224169    2.2805996670
H       -4.7748977235   -0.9143899784    6.0851020041
H       -5.2841212456   -1.9423667743    3.9197491425
H       -1.2017618631    0.5816442368    4.5603556302
H       -2.4779067388   -1.7205907633    0.7368472211
H       -0.6624483824   -2.0798271532   -0.7388249694
H       -1.3455354897    1.4248975399   -0.1810779546
H       -0.1311936019    1.9193111495   -1.3598405323
H        0.3540434576    1.6319905959    0.3236764528
H        0.8291220589    0.2105739295   -2.7145662038
H        0.9373401469   -1.4633724447   -2.1509265733
H        1.9904531611   -0.2275346329   -1.4332279527
24   

C       -4.0601962757   -0.7913905088    5.2676801086
C       -4.3115745598   -1.4576883084    4.0526344627
C       -2.1361846326    0.0609828534    4.3987732429
C       -2.3665847551   -0.6017090491    3.1635681900
C       -1.5839466990   -1.1410987087    0.8205544347
C       -0.6917623998   -1.1569314940   -0.2359213362
C       -1.3770794820   -0.4434855110    2.0676102065
C       -0.3203829477    1.2829794500   -0.4375956170
C        0.9774419804   -0.3797128414   -1.8288991794
N       -2.9726434166   -0.0245322314    5.4558898654
N       -3.4803229107   -1.3724525373    2.9991038051
N       -0.0133507653   -0.1221979762   -0.7701481082
O       -0.3784774883    0.2432972436    2.2617686166
H       -4.7710241446   -0.9033962267    6.0777887246
H       -5.2067823821   -2.0617298958    3.9628772965
H       -1.2471472734    0.6696496800    4.5171333451
H       -2.3716865982   -1.8815506557    0.8043224484
H       -0.7151696795   -2.0633115994   -0.8338833409
H       -1.3509844336    1.3880589849   -0.0849935161
H       -0.2136164628    1.9160281450   -1.3236797910
H        0.3644927830    1.6498018277    0.3333154836
H        0.8426618603    0.3214295284   -2.6584933456
H        0.8743615072   -1.3935070729   -2.2285406971
H        1.9894381953   -0.2675288831   -1.4265375558
24   

C       -4.0726625083   -0.7906434314    5.2900712082
C       -4.2620945185   -1.5249451756    4.1033734525
C       -2.1759824711    0.1200474959    4.4202402161
C       -2.3451437114   -0.6089377712    3.2126134218
C       -1.4985354885   -1.1997773682    0.9056888591
C       -0.6867210470   -1.1501980025   -0.2079793935
C       -1.3497780076   -0.4371435998    2.1234417667
C       -0.2512665675    1.2845839593   -0.3663177167
C        0.9908815660   -0.3816376134   -1.7945227285
N       -3.0297926085    0.0390570067    5.4637777114
N       -3.4128952317   -1.4453700638    3.0638377758
N        0.0381600647   -0.1236503713   -0.7009454782
O       -0.4010312400    0.3197315701    2.3033374238
H       -4.7957071103   -0.9007056530    6.0895635899
H       -5.1236944036   -2.1773687667    4.0239566540
H       -1.3237825130    0.7812989800    4.5267762427
H       -2.2412342245   -1.9855490454    0.9143907955
H       -0.7507377310   -2.0309371564   -0.8403825956
H       -1.2734749283    1.3979178994    0.0075396694
H       -0.1587911783    1.9149862427   -1.2558687957
H        0.4534268388    1.6485036514    0.3880175773
H        0.8248652014    0.3169334649   -2.6206988220
H        0.8774496824   -1.3968338833   -2.1878233591
H        2.0164501892   -0.2667939549   -1.4291724138
24   

C       -4.0985044813   -0.8591367766    5.2841202552
C       -4.2189172484   -1.6442727290    4.1212562372
C       -2.2453492143    0.1379363952    4.4153020329
C       -2.3463578675   -0.6399511155    3.2305599408
C       -1.4375818495   -1.2360624583    0.9483084519
C       -0.7074214669   -1.1301505869   -0.2149245612
C       -1.3507522965   -0.4327926589    2.1469945195
C       -0.1256550659    1.2782028968   -0.3245131916
C        0.9588003876   -0.4144283376   -1.8359625448
N       -3.1120458253    0.0389162620    5.4465895055
N       -3.3564483232   -1.5472981768    3.0941953622
N        0.0783114649   -0.1372382502   -0.6875251050
O       -0.4616859953    0.3945770802    2.3163141433
H       -4.8295340130   -0.9856502982    6.0738578995
H       -5.0372946838   -2.3510099533    4.0498678896
H       -1.4397213373    0.8565222497    4.5123773655
H       -2.1406458039   -2.0571945712    0.9716500728
H       -0.8264751172   -1.9871112989   -0.8716747556
H       -1.1402744356    1.4446243299    0.0503026105
H        0.0053956464    1.9200224302   -1.2010131300
H        0.6007984040    1.5842950872    0.4348813617
H        0.7073383324    0.2394163603   -2.6771586287
H        0.8578263092   -1.4509314629   -2.1731952310
H        2.0032548068   -0.2497460951   -1.5525888383
24   

C       -4.1592499372   -1.0397509212    5.2452377471
C       -4.0835118750   -1.9044360878    4.1367136195
C       -2.6515480333    0.3522594269    4.2582539842
C       -2.5556970172   -0.5035952443    3.1278896837
C       -1.5270759145   -0.9974824839    0.8717003549
C       -0.7970772749   -0.9363281863   -0.3019619378
C       -1.6409912070   -0.1278209898    2.0157443199
C        0.3787093766    1.2548423184   -0.2976910421
C        0.6937713254   -0.4088600878   -2.1549383772
N       -3.4469689403    0.0973863226    5.3199688670
N       -3.2934194024   -1.6510082518    3.0788578388
N        0.0823792326   -0.0751386148   -0.8552301653
O       -0.9903388201    0.9049860784    2.1172109459
H       -4.8162246826   -1.3041135980    6.0653535405
H       -4.6826522848   -2.8074460546    4.1352825101
H       -2.0621783992    1.2613473898    4.2882116363
H       -2.1364969678   -1.8887961404    0.9242629423
H       -0.9821492217   -1.8185514527   -0.9080365976
H        0.9095845824    1.8679603790   -1.0320975930
H        1.0160247033    1.1646159727    0.5872322593
H       -0.5447356307    1.7867649045   -0.0546017309
H        0.4998300726    0.3889571660   -2.8791464811
H        0.2835063287   -1.3370349206   -2.5651398261
H        1.7750278349   -0.5344613614   -2.0397554383
24   

C       -4.0240589430   -0.9114736211    5.3282407336
C       -3.8045385634   -1.9149531589    4.3649003253
C       -2.9626845101    0.5972878395    3.9939626701
C       -2.7258899126   -0.3975616048    3.0074823817
C       -1.7574556139   -1.0296602556    0.7596176500
C       -1.0039566311   -0.9402337189   -0.3901528568
C       -1.9841780122   -0.0257730684    1.7746067114
C        0.7491615761    0.7162271936    0.1861343535
C        0.3717255740   -0.0400466985   -2.1827597957
N       -3.6082513508    0.3547078166    5.1553917574
N       -3.1625531227   -1.6747709449    3.2080578205
N       -0.0712110578   -0.0422867246   -0.7774563231
O       -1.6128861893    1.1350998597    1.6399163659
H       -4.5466072621   -1.1732400046    6.2406648063
H       -4.1639681704   -2.9178471552    4.5632179098
H       -2.6102423118    1.6082212326    3.8247744858
H       -2.2767098976   -1.9689104905    0.8910467487
H       -1.1754943900   -1.7643647472   -1.0766357078
H        1.7858225124    0.7764883853   -0.1589120938
H        0.7610574901    0.2242853264    1.1636291515
H        0.3647295430    1.7354873862    0.2930249304
H        0.1519431532    0.9295784968   -2.6408291780
H       -0.1413742838   -0.8138776073   -2.7625580306
H        1.4478386971   -0.2310383728   -2.2448868521
24   

C       -3.9907046505   -0.8989492596    5.3017406980
C       -3.7009863225   -1.9366223837    4.3947304695
C       -2.9980668942    0.5974398092    3.9021957322
C       -2.6931136848   -0.4315791826    2.9713163241
C       -1.6850483990   -1.1161754510    0.7567956178
C       -1.0075441760   -0.9746170104   -0.4359365312
C       -1.9688567400   -0.0803336883    1.7229003558
C        0.8125107978    0.5687007401    0.2336624143
C        0.3968080166   -0.0245078920   -2.1818649031
N       -3.6443163256    0.3783394726    5.0678928929
N       -3.0579921367   -1.7199012146    3.2338087876
N       -0.0246743276   -0.1127598080   -0.7730684033
O       -1.6657245396    1.0919490045    1.5249122492
H       -4.5113686639   -1.1426669004    6.2202212418
H       -4.0061744243   -2.9468349439    4.6409923469
H       -2.7033518021    1.6171099880    3.6824946081
H       -2.1640191750   -2.0721265216    0.9176336999
H       -1.2149715108   -1.7603309902   -1.1566013838
H        1.8574000906    0.5903551546   -0.0903699818
H        0.7804532564    0.0428418466    1.1928153893
H        0.4743642608    1.6002302902    0.3738355283
H        0.0982527237    0.9423842923   -2.5995361245
H       -0.0622615765   -0.8155498877   -2.7832632646
H        1.4831492331   -0.1301006054   -2.2645670533
24   

C       -3.9666453101   -0.8547827670    5.3245826177
C       -3.6081414587   -1.9134533510    4.4677378162
C       -3.0245163995    0.6303797549    3.8789040859
C       -2.6527864610   -0.4196952441    2.9973393424
C       -1.5889240426   -1.1393006235    0.8193245903
C       -1.0172925371   -0.9482983975   -0.4253713325
C       -1.9398225760   -0.0829904797    1.7389328737
C        0.8516898807    0.5275363743    0.2529134710
C        0.3864071319    0.0001976287   -2.1739713024
N       -3.6794002424    0.4275151853    5.0427051869
N       -2.9551078639   -1.7130131732    3.3094802354
N        0.0032157822   -0.1335389960   -0.7582619303
O       -1.7034304555    1.0945064835    1.4855635762
H       -4.4930483278   -1.0858987434    6.2430504920
H       -3.8682507477   -2.9265641079    4.7510525917
H       -2.7793700892    1.6537378441    3.6190671125
H       -2.0119254619   -2.1145144193    1.0170504866
H       -1.2777884801   -1.7018475485   -1.1628918519
H        1.8919271837    0.5595462269   -0.0849912948
H        0.8341378342   -0.0197433898    1.2003775377
H        0.5119386835    1.5540957747    0.4222110881
H        0.0632216383    0.9737925056   -2.5564308373
H       -0.0759881269   -0.7820607493   -2.7842025630
H        1.4716708135   -0.0861018254   -2.2869000809
24   

C       -3.9721905629   -0.8497842513    5.3381938229
C       -3.5359850925   -1.9126004730    4.5234872317
C       -3.0764953245    0.6405480901    3.8684652893
C       -2.6287796985   -0.4136583126    3.0284193875
C       -1.4873712244   -1.1348547852    0.8876276936
C       -1.0306995169   -0.9030799689   -0.4034627538
C       -1.9192635627   -0.0760583985    1.7687748210
C        0.8821283333    0.5246331300    0.2299816879
C        0.3658188591   -0.0095635188   -2.1887198511
N       -3.7467729085    0.4372607429    5.0233809652
N       -2.8663544338   -1.7116140708    3.3748254887
N        0.0270637522   -0.1544699043   -0.7631780163
O       -1.7492618531    1.1034756278    1.4732885621
H       -4.5091511766   -1.0815907300    6.2503559458
H       -3.7492681694   -2.9294154059    4.8315836925
H       -2.8824028934    1.6673733312    3.5806333632
H       -1.8432832233   -2.1291839154    1.1191484224
H       -1.3622510160   -1.6254196800   -1.1436351131
H        1.9077582737    0.6046097465   -0.1430038815
H        0.9192571659   -0.0387727959    1.1674535864
H        0.5069925762    1.5332688627    0.4292495411
H        0.0871346197    0.9900312552   -2.5378287017
H       -0.1646920025   -0.7483580477   -2.7976828332
H        1.4394185845   -0.1567280832   -2.3424552368
24   

C       -4.0120161885   -0.8726966366    5.3488533688
C       -3.4894138076   -1.9212769809    4.5671583097
C       -3.1619745967    0.6433892349    3.8782049912
C       -2.6291079741   -0.3963947434    3.0709558100
C       -1.3889933995   -1.0804451659    0.9687662336
C       -1.0378564453   -0.8233023927   -0.3585044527
C       -1.9153736038   -0.0392283091    1.8196601056
C        0.9279040960    0.5426343686    0.1882388169
C        0.3450096292   -0.0392429648   -2.2077135339
N       -3.8527538932    0.4200910570    5.0172385527
N       -2.7983252827   -1.7000479345    3.4350553331
N        0.0577879911   -0.1661547357   -0.7693851303
O       -1.8121607165    1.1408320278    1.4956719186
H       -4.5627327564   -1.1207747445    6.2484480412
H       -3.6527095428   -2.9437418701    4.8869142653
H       -3.0213332117    1.6746310946    3.5754554451
H       -1.6672858256   -2.0924289393    1.2281353226
H       -1.4603927728   -1.5092357197   -1.0868434337
H        1.9197557693    0.7030074880   -0.2455028146
H        1.0603550973   -0.0443971050    1.1024809373
H        0.4997109651    1.5171077687    0.4429462757
H        0.1499241712    0.9863051115   -2.5378631054
H       -0.2828667933   -0.7152007733   -2.7967378682
H        1.3913964095   -0.2889255647   -2.4091243628
24   

C       -4.0720709369   -0.9478715782    5.3612748887
C       -3.4430517291   -1.9551014173    4.6039563816
C       -3.3009344508    0.6241514515    3.9056834337
C       -2.6628101542   -0.3737583969    3.1228562659
C       -1.3085930983   -0.9621513571    1.0583168571
C       -1.0323479562   -0.7064833314   -0.2967186934
C       -1.9521130029    0.0311661123    1.8850022836
C        1.0048641299    0.5589394806    0.1279772927
C        0.3204452948   -0.0837414959   -2.2291069575
N       -4.0058350411    0.3519968269    5.0253138819
N       -2.7365551485   -1.6846549725    3.4922740365
N        0.0921035585   -0.1630569018   -0.7768243905
O       -1.9415247458    1.2097619532    1.5401208680
H       -4.6298792949   -1.2350537551    6.2447250597
H       -3.5351668495   -2.9859762274    4.9251736509
H       -3.2344457705    1.6613820473    3.5980794964
H       -1.4761980163   -1.9910103270    1.3447120235
H       -1.5678554017   -1.3401477653   -0.9976159853
H        1.9435106443    0.7942487689   -0.3832397928
H        1.2462804384   -0.0554633264    1.0011541213
H        0.5460489815    1.4953932457    0.4613073156
H        0.2282329284    0.9538810554   -2.5661733435
H       -0.4097475934   -0.6877383986   -2.7769652502
H        1.3202918016   -0.4547433506   -2.4750675764
24   

C       -3.8502585758   -0.9276617059    5.3556518468
C       -2.9525671322   -1.7568101896    4.6553887634
C       -4.0509133405    0.4025085818    3.5182030661
C       -3.1478141380   -0.4175256635    2.7924118210
C       -1.8982447211   -0.8740691575    0.6325614903
C       -1.3021433039   -0.3520241987   -0.5107160412
C       -2.8067528553   -0.0504125972    1.3965498142
C        0.9601680595   -0.1795880823    0.4143385828
C        0.3993160059    0.7319611452   -1.8920434278
N       -4.4104091638    0.1594614627    4.7974286962
N       -2.5951182009   -1.5165364509    3.3816786312
N       -0.0270937566    0.0595036147   -0.6529545642
O       -3.2905154611    0.9554730775    0.8830365926
H       -4.0947764977   -1.1777649798    6.3812127872
H       -2.5324712978   -2.6183870120    5.1609786243
H       -4.4804873486    1.2725970795    3.0352146180
H       -1.3909659531   -1.6647999331    1.1672318453
H       -2.0016099286    0.1105519054   -1.2030965606
H        1.2244917875   -1.2411088431    0.4538434033
H        0.5589487507    0.1304360658    1.3846221413
H        1.8715312175    0.3981182930    0.2306137472
H        1.0239030074    1.5999112364   -1.6590157992
H       -0.4640149572    1.0848531616   -2.4651188226
H        0.9694351703    0.0366679389   -2.5167797078
24   

C       -3.9543440852   -0.9784723134    5.3468514722
C       -2.9382458395   -1.7134995893    4.7056735049
C       -4.2208612538    0.2845496149    3.4709301095
C       -3.1989089955   -0.4410079602    2.8044569189
C       -1.7983620649   -0.7910668878    0.7179543541
C       -1.2554028616   -0.2463725925   -0.4298881545
C       -2.8383411926   -0.0645586309    1.4161157633
C        1.0827942994   -0.2641500523    0.3206905914
C        0.4144591981    0.7657113665   -1.9056006292
N       -4.6079630875    0.0268421902    4.7391413871
N       -2.5528520040   -1.4585173130    3.4429885993
N        0.0357580774    0.0866061450   -0.6547459977
O       -3.4134185400    0.8665952469    0.8572638623
H       -4.2150478491   -1.2349268146    6.3668411020
H       -2.4472903448   -2.5121492043    5.2492892310
H       -4.7233013676    1.0911058044    2.9494956330
H       -1.2318989949   -1.5198978208    1.2802485094
H       -1.9728702914    0.2492161312   -1.0800487531
H        1.2597167294   -1.3444357345    0.3127008758
H        0.7881264343    0.0477919057    1.3278236429
H        2.0217249231    0.2420665148    0.0753035997
H        1.1322341602    1.5665136434   -1.7024774589
H       -0.4593534596    1.2143175218   -2.3888366883
H        0.8645842159    0.0476475135   -2.5988210168
24   

C       -4.0291585366   -1.0484435310    5.3513001764
C       -2.9150420251   -1.6792360327    4.7639989702
C       -4.3385332903    0.1680130086    3.4516244418
C       -3.2183213525   -0.4528747146    2.8392343513
C       -1.6902465153   -0.6684362830    0.8245126522
C       -1.2055934150   -0.1196954082   -0.3397044608
C       -2.8377482657   -0.0525357718    1.4631490945
C        1.1811711364   -0.3149538637    0.2230232837
C        0.4149125294    0.7746742237   -1.9418424514
N       -4.7540872641   -0.1195706778    4.7042173534
N       -2.5005270254   -1.3939159230    3.5170258903
N        0.0877957243    0.1209706189   -0.6632451466
O       -3.4867659250    0.8046508641    0.8677505191
H       -4.3085203052   -1.3238477260    6.3613586248
H       -2.3707167075   -2.4202529213    5.3375515955
H       -4.8969899844    0.9153121211    2.8997375376
H       -1.0776840880   -1.3443050213    1.4041367691
H       -1.9408588139    0.3900338966   -0.9583107278
H        1.2572795941   -1.4070486526    0.2197522922
H        1.0066182293    0.0340489803    1.2458200006
H        2.1371678792    0.0983461662   -0.1135987561
H        1.2163651328    1.5067044875   -1.8019837488
H       -0.4543744377    1.3037398224   -2.3452856104
H        0.7367996087    0.0256569747   -2.6727049498
24   

C       -4.1031293497   -1.1270879697    5.3337891678
C       -2.9040284325   -1.6454530006    4.8068907174
C       -4.4363197473    0.0480802589    3.4124032888
C       -3.2310448268   -0.4602072639    2.8604858668
C       -1.5919901629   -0.5338276721    0.9257402065
C       -1.1515387412   -0.0024913018   -0.2593363654
C       -2.8262820690   -0.0314188366    1.4999832321
C        1.2478029657   -0.3955634532    0.1286303915
C        0.4147053853    0.7327280106   -1.9903490082
N       -4.8832103723   -0.2761450929    4.6450571250
N       -2.4579892906   -1.3232964218    3.5798951695
N        0.1306334915    0.1237472106   -0.6797407314
O       -3.5311388535    0.7509483623    0.8660785947
H       -4.4042198404   -1.4268562441    6.3305780151
H       -2.3186510160   -2.3278538866    5.4118702122
H       -5.0383464270    0.7343751426    2.8280383234
H       -0.9487950698   -1.1641389986    1.5230060085
H       -1.8959782331    0.5164406550   -0.8588770174
H        1.2154355729   -1.4894419358    0.1591506300
H        1.1967659300   -0.0014498919    1.1486338067
H        2.2075470083   -0.0919276493   -0.3012169330
H        1.2810169266    1.3980273775   -1.9219688440
H       -0.4360745561    1.3267624941   -2.3391567378
H        0.6199973953   -0.0488757213   -2.7290853628
24   

C       -4.2877205596   -1.1539234329    5.2363013747
C       -4.3655612971   -0.4345346128    4.0277164978
C       -2.1670529456   -1.7967694716    4.7139940971
C       -2.2217741165   -1.0788919701    3.4902472220
C       -1.0817599591   -0.3640804278    1.3403986046
C       -0.0069655727   -0.4473399251    0.4962869455
C       -1.0405879459   -1.0945406155    2.5940329725
C       -1.1357981128    0.4887863018   -1.4826397159
C        1.3044231383   -0.2142309921   -1.5560897055
N       -3.1903261555   -1.8427327685    5.5943154896
N       -3.3475111865   -0.3881098096    3.1503456719
N        0.0416192895   -0.0866183743   -0.8087986407
O       -0.0342095428   -1.7227156667    2.9158197319
H       -5.1451450359   -1.1498318338    5.8988051371
H       -5.2785925883    0.1010740854    3.7957343476
H       -1.2649569855   -2.3408795743    4.9691348946
H       -1.9852266091    0.1516848056    1.0484373673
H        0.8877344265   -0.9244253129    0.8895094563
H       -1.3775991080    1.4659306212   -1.0521367285
H       -1.9979497867   -0.1778909939   -1.3799444885
H       -0.9400285332    0.6240468895   -2.5510334996
H        1.1149003178   -0.6054691761   -2.5605172469
H        1.9895448310   -0.9040294419   -1.0529037295
H        1.7914291142    0.7629740829   -1.6375137575
24   

C       -4.2746919766   -1.1549379089    5.2396303384
C       -4.3915469320   -0.5127426478    3.9913644175
C       -2.1134631231   -1.6868606158    4.7606645698
C       -2.2073318556   -1.0464159223    3.4969419511
C       -1.1081744482   -0.3966032440    1.3068941756
C       -0.0100437265   -0.4225271490    0.4893267757
C       -1.0238906758   -1.0417877648    2.6034543446
C       -1.0195874570    0.8578129697   -1.3554407487
C        1.3437211641   -0.0571023842   -1.5145725227
N       -3.1369215890   -1.7484221373    5.6398151643
N       -3.3731853937   -0.4504158302    3.1153482028
N        0.1003436170    0.1199367658   -0.7447931056
O        0.0173415027   -1.5878786741    2.9621441867
H       -5.1348987649   -1.1693234821    5.8983728887
H       -5.3361332760   -0.0524671183    3.7263737223
H       -1.1798641438   -2.1562735734    5.0487109062
H       -2.0257803819    0.0858864199    1.0026463528
H        0.8710182121   -0.9383670283    0.8638173729
H       -1.3295128738    1.6844110778   -0.7081153356
H       -1.8686302744    0.1870327259   -1.5221943208
H       -0.7218232429    1.2784723733   -2.3211231520
H        1.1849354295   -0.7783235576   -2.3227805423
H        2.1525937931   -0.4258584368   -0.8756536181
H        1.6643932893    0.8979778077   -1.9423511093
