18   
Generated by ForceBalance from scan.xyz: Frame 1 of 24
C        4.6270948479    1.3396063049    0.7789731243
C        5.8153117994    1.0964814092    0.0819769205
C        3.5008874128    0.5758692131    0.4819786556
C        5.8618449048    0.1018699539   -0.8924589367
C        3.5148812075   -0.4449182471   -0.4880718959
C        4.7286162223   -0.6744125646   -1.1846181934
C        2.2836726517   -1.2595635898   -0.7409971179
C        0.9611448942   -0.7457351518   -0.1804220038
O        2.3102354744   -2.3131859061   -1.3628699842
O        4.7809410589   -1.6336435737   -2.1487376709
H        4.5813062416    2.1127954928    1.5400145303
H        6.7065497660    1.6816148764    0.2931896172
H        2.5831216127    0.7703518149    1.0261846740
H        6.7867767617   -0.0817103740   -1.4377238753
H        0.7814023325    0.3004586836   -0.4468969087
H        0.9477321782   -0.8178901503    0.9129632701
H        0.1598276680   -1.3695539130   -0.5781614014
H        5.6685704564   -1.6233747036   -2.5432201164
18   
Generated by ForceBalance from scan.xyz: Frame 2 of 24
C        4.6585109327    1.3253508533    0.8376459311
C        5.8224119842    1.1218456831    0.0894084124
C        3.5350944513    0.5453601376    0.5677991315
C        5.8516952847    0.1493006600   -0.9093401910
C        3.5390812337   -0.4554416673   -0.4197620245
C        4.7252027714   -0.6465242488   -1.1678026258
C        2.3294741382   -1.3189268933   -0.6179731070
C        0.9716744846   -0.7230802483   -0.2649840651
O        2.4123600260   -2.4711546229   -1.0185709282
O        4.7422880287   -1.5826464740   -2.1579717619
H        4.6282335838    2.0805222841    1.6173483300
H        6.7086486884    1.7220519051    0.2779971678
H        2.6327101067    0.7061642059    1.1492372710
H        6.7567289063    0.0000722274   -1.4967230679
H        0.8631334449    0.3011081160   -0.6338578046
H        0.8373093798   -0.7014468840    0.8227220813
H        0.1947325057   -1.3600871746   -0.6901279626
H        5.6050479170   -1.5480455427   -2.6019160747
18   
Generated by ForceBalance from scan.xyz: Frame 3 of 24
C        4.7331940638    1.2636366176    0.9001926892
C        5.8505220040    1.0925696323    0.0777689791
C        3.5968832321    0.4855203685    0.6732469358
C        5.8259708847    0.1524428019   -0.9534679965
C        3.5526894013   -0.4797736068   -0.3443829146
C        4.6898167160   -0.6409091146   -1.1654797346
C        2.3474367075   -1.3659700565   -0.4960315700
C        0.9817795639   -0.7074093170   -0.3783586287
O        2.4567350047   -2.5681761037   -0.6810882383
O        4.6351214310   -1.5488196281   -2.1840672525
H        4.7469830352    1.9917307227    1.7057125810
H        6.7430319851    1.6929138267    0.2330143076
H        2.7299153813    0.6171164594    1.3141434031
H        6.6942992814    0.0295260181   -1.5993096863
H        0.9124724056    0.1652673430   -1.0357806480
H        0.8070321314   -0.3558882492    0.6445510853
H        0.2108979740   -1.4360311704   -0.6337814761
H        5.4731962707   -1.5225996909   -2.6726232660
18   
Generated by ForceBalance from scan.xyz: Frame 4 of 24
C        4.7931904110    1.2000922126    0.9937826847
C        5.8594658785    1.0832218899    0.0979912294
C        3.6523811039    0.4162228940    0.8024124374
C        5.7838588150    0.1902793278   -0.9736106057
C        3.5638512259   -0.4991184923   -0.2538192506
C        4.6453572753   -0.6066903548   -1.1483211968
C        2.3643005783   -1.4049516050   -0.3769963154
C        1.0135026085   -0.7303353655   -0.5173435598
O        2.4840695210   -2.6188476484   -0.3551165292
O        4.5216832075   -1.4759205326   -2.1987226191
H        4.8484406968    1.8910396481    1.8297245441
H        6.7520211307    1.6897397489    0.2263892920
H        2.8234989473    0.5000752019    1.5009356767
H        6.6114175900    0.1106004378   -1.6770876560
H        0.9870562735   -0.1761493494   -1.4629736035
H        0.8506804020    0.0024796705    0.2797718158
H        0.2188987387   -1.4783157677   -0.5049378835
H        5.3384683303   -1.4590572439   -2.7220206584
18   
Generated by ForceBalance from scan.xyz: Frame 5 of 24
C        4.8517499528    1.1634167116    1.0561755370
C        5.8579579781    1.0883778678    0.0893418366
C        3.7104653072    0.3667376636    0.9204153735
C        5.7233602523    0.2266368357   -1.0028098199
C        3.5680907327   -0.5143591444   -0.1557819405
C        4.5823308394   -0.5751212955   -1.1243743024
C        2.3581691156   -1.4159331338   -0.2556184048
C        1.0622063133   -0.7512337294   -0.6681805582
O        2.4380934431   -2.6069932263   -0.0090216900
O        4.3852756276   -1.4207175659   -2.1875231911
H        4.9532153297    1.8322669698    1.9057143719
H        6.7494991260    1.7033458262    0.1779121808
H        2.9254757632    0.4166372079    1.6717573990
H        6.5037346955    0.1778551620   -1.7608553697
H        1.1731759632   -0.3607741140   -1.6868227189
H        0.8480921761    0.1087972672   -0.0241665240
H        0.2383387172   -1.4664233930   -0.6325611357
H        5.1644783459   -1.3950642662   -2.7649033421
18   
Generated by ForceBalance from scan.xyz: Frame 6 of 24
C        4.9160539649    1.1365730441    1.1236060433
C        5.8488605364    1.1017718827    0.0836526441
C        3.7790521339    0.3245279131    1.0545416343
C        5.6437299090    0.2681005631   -1.0196526507
C        3.5701342767   -0.5278990587   -0.0328433599
C        4.5019509698   -0.5382523379   -1.0805761108
C        2.3326806703   -1.3957109205   -0.1114142168
C        1.1404558115   -0.7836830218   -0.8137566799
O        2.3184521221   -2.5209620057    0.3569035494
O        4.2273948653   -1.3575937931   -2.1505211773
H        5.0710039386    1.7866427258    1.9796606557
H        6.7376984049    1.7255962427    0.1239775138
H        3.0513177845    0.3398981131    1.8625914683
H        6.3675146401    0.2475265847   -1.8330822569
H        1.4218378865   -0.5359907413   -1.8435607711
H        0.8577304261    0.1561336950   -0.3259837478
H        0.2987051445   -1.4787855975   -0.8122723173
H        4.9511834911   -1.2987746636   -2.7938901341
18   
Generated by ForceBalance from scan.xyz: Frame 7 of 24
C        4.9645989060    1.0871086897    1.1678439863
C        5.8469308184    1.0884106292    0.0840061979
C        3.8243295764    0.2788919426    1.1243309099
C        5.5864104036    0.2957754830   -1.0374904930
C        3.5543983572   -0.5279086104    0.0145702431
C        4.4357294637   -0.4989399797   -1.0764733009
C        2.2910481144   -1.3567723676   -0.0306313630
C        1.1904683827   -0.8463071404   -0.9348250431
O        2.1822206524   -2.3746476185    0.6332516641
O        4.1182099284   -1.2846283601   -2.1613038942
H        5.1624341881    1.7053822422    2.0384998040
H        6.7405312746    1.7063557850    0.1054092432
H        3.1369944936    0.2599110040    1.9664439151
H        6.2745763155    0.2975202484   -1.8815550659
H        1.5733145435   -0.7451919463   -1.9554178138
H        0.8772640742    0.1518517164   -0.6071185754
H        0.3395083266   -1.5297710394   -0.9166874274
H        4.8160446396   -1.2027702557   -2.8303921339
18   
Generated by ForceBalance from scan.xyz: Frame 8 of 24
C        5.0172716552    1.0473220672    1.2079843478
C        5.8632601993    1.0815002814    0.0955726418
C        3.8679040532    0.2546136141    1.1683375815
C        5.5579134707    0.3357638966   -1.0457407381
C        3.5428392847   -0.4978245275    0.0325380724
C        4.3941519421   -0.4406677493   -1.0833814209
C        2.2553888184   -1.2841796603    0.0325155930
C        1.2193085716   -0.9206062212   -1.0093743029
O        2.0621335897   -2.1526924064    0.8700791312
O        4.0576088271   -1.1911837824   -2.1873814458
H        5.2515194586    1.6271858575    2.0958539229
H        6.7657824156    1.6865565588    0.1117038936
H        3.2071418792    0.2026650541    2.0295223268
H        6.2234583835    0.3570330284   -1.9075646446
H        1.6435230014   -1.0189590954   -2.0121505413
H        0.9273872223    0.1286649001   -0.8827570215
H        0.3443588424   -1.5642532129   -0.9020780569
H        4.7473038858   -1.0893009007   -2.8622351217
18   
Generated by ForceBalance from scan.xyz: Frame 9 of 24
C        5.0067952736    0.9229677212    1.2782725474
C        5.8268697977    1.0021894446    0.1480066264
C        3.8345499052    0.1689903836    1.2190311664
C        5.4696721741    0.3389476054   -1.0277474025
C        3.4536816969   -0.5034781805    0.0479737210
C        4.2798832705   -0.3970754604   -1.0857126784
C        2.1348636819   -1.2265628262    0.0548249545
C        1.2029342530   -1.0634344749   -1.1294542006
O        1.8274942007   -1.9241431991    1.0129604984
O        3.9020710436   -1.0592812821   -2.2300495059
H        5.2789825542    1.4415627264    2.1927999801
H        6.7476135096    1.5788031726    0.1769902592
H        3.1890983988    0.0804692370    2.0881145770
H        6.1144728775    0.3942867981   -1.9037543374
H        1.5039650668   -1.7588826137   -1.9186318259
H        1.2524414548   -0.0555490697   -1.5508547476
H        0.1852220202   -1.3007003440   -0.8131625306
H        4.5708971236   -0.9084051882   -2.9168007900
18   
Generated by ForceBalance from scan.xyz: Frame 10 of 24
C        5.0624558038    0.8704406702    1.2990189635
C        5.8632591992    0.9650014621    0.1548826095
C        3.8596999682    0.1714424311    1.2314795050
C        5.4547805195    0.3684755179   -1.0380578448
C        3.4201689122   -0.4326382186    0.0407205300
C        4.2347799326   -0.3184261054   -1.1031284015
C        2.0824425880   -1.1168180306    0.0737127527
C        1.2253836611   -1.1640100355   -1.1750134774
O        1.6868705618   -1.6163858788    1.1214236485
O        3.8258098009   -0.9177289165   -2.2698787219
H        5.3747864093    1.3365466987    2.2288578786
H        6.8078196491    1.5016043394    0.1877540369
H        3.2242570721    0.0709863270    2.1060702776
H        6.0839206741    0.4342891609   -1.9247186791
H        1.5783776085   -1.9680050560   -1.8279695022
H        1.2889325800   -0.2368093851   -1.7505906853
H        0.1941602431   -1.3673657238   -0.8802811293
H        4.4992952156   -0.7666529259   -2.9522289097
18   
Generated by ForceBalance from scan.xyz: Frame 11 of 24
C        5.0712340988    0.8095202582    1.3430859347
C        5.8579263121    0.9053296485    0.1883810958
C        3.8307047940    0.1846207058    1.2692036549
C        5.3959914101    0.3797504118   -1.0166805228
C        3.3329246644   -0.3496816010    0.0655402595
C        4.1400811631   -0.2415562722   -1.0865397503
C        1.9669680649   -0.9783938683    0.1183463243
C        1.1940383113   -1.2542938548   -1.1543163595
O        1.4736853313   -1.2520117208    1.2086311714
O        3.6946209223   -0.7673609700   -2.2743556545
H        5.4249876162    1.2186064860    2.2848701740
H        6.8313674277    1.3875448621    0.2234021567
H        3.2010095433    0.0880213072    2.1479610402
H        6.0112480082    0.4481538787   -1.9129272291
H        1.6541141933   -2.0844332355   -1.6988519017
H        1.2088895210   -0.3944245747   -1.8294082392
H        0.1693771220   -1.5151623040   -0.8845403956
H        4.3732009780   -0.6213987025   -2.9529666883
18   
Generated by ForceBalance from scan.xyz: Frame 12 of 24
C        5.1284730899    0.7432612758    1.3499058462
C        5.9108896589    0.8451573499    0.1925308383
C        3.8570325086    0.1876727448    1.2623507863
C        5.4128016648    0.3926139268   -1.0269793497
C        3.3234184494   -0.2794076574    0.0452144916
C        4.1284875406   -0.1673447649   -1.1090155327
C        1.9337491216   -0.8573044862    0.0966843421
C        1.2650870124   -1.3878720840   -1.1536164753
O        1.3396025054   -0.8958518344    1.1707119722
O        3.6501178139   -0.6094432182   -2.3176784918
H        5.5101663433    1.0939605529    2.3042544514
H        6.9077822428    1.2759937896    0.2368452739
H        3.2262566362    0.0947116497    2.1405701679
H        6.0209990628    0.4716645619   -1.9271994238
H        1.8574745702   -2.1909783412   -1.6013448163
H        1.1847308023   -0.6053549343   -1.9136838887
H        0.2738882778   -1.7548758971   -0.8831009336
H        4.3287224869   -0.4558873931   -2.9946920566
18   
Generated by ForceBalance from scan.xyz: Frame 13 of 24
C        5.1351159123    0.6585503623    1.3729427784
C        5.9158941916    0.7683608500    0.2154731220
C        3.8354123420    0.1734434769    1.2713793555
C        5.3904400894    0.3928229570   -1.0192985784
C        3.2784060294   -0.2209447857    0.0400085805
C        4.0818229506   -0.1039698870   -1.1138194174
C        1.8700857630   -0.7495810726    0.0729884152
C        1.3079090471   -1.5233366387   -1.1010939700
O        1.1817370469   -0.5623994570    1.0720154821
O        3.5654789162   -0.4623074690   -2.3348005322
H        5.5394805266    0.9480630831    2.3384077255
H        6.9332698202    1.1467843716    0.2710501057
H        3.2028873755    0.0835287373    2.1488130680
H        5.9955888035    0.4851018794   -1.9202746242
H        2.0087506161   -2.2840903523   -1.4552426927
H        1.1308093382   -0.8481270647   -1.9437367660
H        0.3662294896   -1.9802582553   -0.7925088158
H        4.2392676975   -0.3050123628   -3.0156498683
18   
Generated by ForceBalance from scan.xyz: Frame 14 of 24
C        4.6184197847    1.9488345609    0.1211762359
C        5.7578224652    1.1441275961    0.0050482057
C        3.3673870202    1.3994544985   -0.1487914753
C        5.6361443843   -0.1932557367   -0.3723187294
C        3.2150583195    0.0531707736   -0.5233993714
C        4.3723355037   -0.7439004792   -0.6253991060
C        1.8128965991   -0.4423375250   -0.7404684171
C        1.4681052022   -1.8892580997   -0.4512841459
O        0.9522594038    0.3377799710   -1.1334834336
O        4.2403022544   -2.0573371558   -1.0064183255
H        4.7081905722    2.9895235107    0.4183532442
H        6.7437536079    1.5547937877    0.2063209475
H        2.4675162929    2.0029203238   -0.0791484535
H        6.5246212535   -0.8153205355   -0.4721220090
H        1.9912319522   -2.2663342784    0.4314292291
H        1.7789810525   -2.5126416181   -1.2951519443
H        0.3868076962   -1.9694118890   -0.3247330115
H        5.1218997644   -2.4610118979   -1.0493124977
18   
Generated by ForceBalance from scan.xyz: Frame 15 of 24
C        4.5909977849    1.9198975168    0.1897967872
C        5.7384033733    1.1319698233    0.0522052214
C        3.3485204632    1.3794519201   -0.1423504704
C        5.6373698630   -0.1833702712   -0.4055634648
C        3.2220406354    0.0596335647   -0.6014095864
C        4.3839183310   -0.7254184275   -0.7149908730
C        1.8346911296   -0.4603524828   -0.8603795496
C        1.4611306070   -1.8382603279   -0.3510848355
O        1.0270533710    0.2333182828   -1.4650992017
O        4.2538533185   -2.0177108051   -1.1664600297
H        4.6653097935    2.9416283249    0.5502588719
H        6.7159393398    1.5376637461    0.2990426430
H        2.4450640960    1.9764311097   -0.0579161313
H        6.5331355156   -0.7920679901   -0.5209379152
H        1.9414898593   -2.0631385603    0.6052195709
H        1.8039647158   -2.5889723735   -1.0694217899
H        0.3746630364   -1.8991031097   -0.2618169143
H        5.1327821465   -2.4269592786   -1.2078885985
18   
Generated by ForceBalance from scan.xyz: Frame 16 of 24
C        4.5595915639    1.8433943026    0.2442050306
C        5.7168045325    1.0854387341    0.0422673249
C        3.3209929032    1.3122003974   -0.1228594898
C        5.6323686588   -0.1929982763   -0.5147968479
C        3.2153089642    0.0315659743   -0.6802449048
C        4.3850724184   -0.7243397636   -0.8622577311
C        1.8424448056   -0.5069535345   -0.9982155475
C        1.4030687562   -1.7586335883   -0.2692630591
O        1.1161397421    0.0785887642   -1.7873617398
O        4.2586997278   -1.9791408081   -1.4143022685
H        4.6214975575    2.8368887605    0.6784319179
H        6.6895191938    1.4859761392    0.3148928541
H        2.4129759404    1.8939009981    0.0115494203
H        6.5357103745   -0.7786672600   -0.6794110594
H        1.3848356452   -1.5621723989    0.8094209793
H        2.1200147107   -2.5663421085   -0.4385144381
H        0.4085486157   -2.0549922932   -0.6075399273
H        5.1410312857   -2.3677628406   -1.5235775888
18   
Generated by ForceBalance from scan.xyz: Frame 17 of 24
C        4.6380371434    1.8279643480    0.3634080131
C        5.8025023610    1.0913161654    0.1297454266
C        3.4030623344    1.3038490689   -0.0309010369
C        5.7319205740   -0.1625046315   -0.4841290669
C        3.3155562498    0.0559228380   -0.6556509592
C        4.4897816080   -0.6832443170   -0.8624041120
C        1.9654372511   -0.5117718287   -1.0299057302
C        1.4445064163   -1.6273925381   -0.1504390467
O        1.3447822698   -0.0803508760   -1.9876716388
O        4.3573260490   -1.9196213393   -1.4529475991
H        4.6898579547    2.8004051444    0.8441591474
H        6.7702923742    1.4877835433    0.4247458558
H        2.4915620323    1.8729170557    0.1342092357
H        6.6398970071   -0.7357693201   -0.6657366442
H        1.3374395950   -1.2658726285    0.8789507042
H        2.1703941073   -2.4466103353   -0.1305712074
H        0.4825607556   -1.9841463092   -0.5232211499
H        5.2361626997   -2.3137357474   -1.5698849791
18   
Generated by ForceBalance from scan.xyz: Frame 18 of 24
C        4.6249145751    1.7790526502    0.4284140367
C        5.8087242125    1.0939579440    0.1419174078
C        3.4005361016    1.2315423130    0.0308123680
C        5.7691344280   -0.1315259802   -0.5296468139
C        3.3466797739    0.0168816565   -0.6579505931
C        4.5393249738   -0.6720994525   -0.9206925035
C        2.0198763456   -0.5797356977   -1.0753633099
C        1.3757729440   -1.5199248123   -0.0801551334
O        1.5206570610   -0.3175839679   -2.1559872953
O        4.4303032351   -1.8860411798   -1.5578409264
H        4.6528062512    2.7290715874    0.9538818552
H        6.7674764594    1.5074695574    0.4429449408
H        2.4746957695    1.7611129784    0.2433096843
H        6.6918229871   -0.6681605712   -0.7455675402
H        1.2231347541   -1.0080580439    0.8768300644
H        2.0563732917   -2.3572187507    0.1114813429
H        0.4245930242   -1.8910848134   -0.4664451886
H        5.3167139380   -2.2514521437   -1.7061785954
18   
Generated by ForceBalance from scan.xyz: Frame 19 of 24
C        4.5987737764    1.6995383924    0.4773769377
C        5.8111718202    1.0999474339    0.1260468975
C        3.3982152900    1.0905254321    0.0986739630
C        5.8226143732   -0.0972020942   -0.5952090025
C        3.3916856427   -0.0971020480   -0.6391016682
C        4.6159284617   -0.6936749037   -0.9794931330
C        2.0871838922   -0.7101778706   -1.0964170613
C        1.2650851285   -1.4037366834   -0.0311913910
O        1.7301550443   -0.6361832941   -2.2595425139
O        4.5662560561   -1.8809069087   -1.6666405643
H        4.5865193706    2.6295112846    1.0380653379
H        6.7529762211    1.5581804835    0.4157095659
H        2.4508989656    1.5542244303    0.3647365490
H        6.7684589347   -0.5684736787   -0.8584090956
H        1.0976576215   -0.7367027036    0.8216140006
H        1.8303707328   -2.2631477280    0.3486337458
H        0.3116709123   -1.7394621036   -0.4432836352
H        5.4696719360   -2.1718669445   -1.8675468723
18   
Generated by ForceBalance from scan.xyz: Frame 20 of 24
C        4.5784940627    1.6281271416    0.5339367302
C        5.8076884173    1.1076003758    0.1203339661
C        3.4013773660    0.9691332496    0.1695989583
C        5.8559684419   -0.0563878840   -0.6505943184
C        3.4262035409   -0.1879580558   -0.6189376908
C        4.6713561488   -0.7009938767   -1.0285932813
C        2.1378869441   -0.8202344679   -1.0829247623
C        1.1756250737   -1.2743735395   -0.0026232786
O        1.8879807669   -0.9476320896   -2.2702253857
O        4.6758918730   -1.8567248375   -1.7624782444
H        4.5360549722    2.5340886910    1.1311803442
H        6.7341186283    1.6021877688    0.3998125914
H        2.4430512442    1.3747375087    0.4843625398
H        6.8161317074   -0.4661782453   -0.9608252078
H        0.9647168919   -0.4673588709    0.7066820268
H        1.6401653310   -2.0839143563    0.5726600721
H        0.2466911306   -1.6274291148   -0.4536709141
H        5.5916345236   -2.0871546658   -1.9851706530
18   
Generated by ForceBalance from scan.xyz: Frame 21 of 24
C        4.5760452432    1.5316003143    0.6178691237
C        5.8098428663    1.0875693330    0.1337006860
C        3.4169433033    0.8414435645    0.2592721180
C        5.8760377706   -0.0303155237   -0.6994338100
C        3.4536729761   -0.2734179294   -0.5920953886
C        4.7076672215   -0.7087516803   -1.0730597918
C        2.1758319672   -0.9312762710   -1.0345160578
C        1.1055918157   -1.1514697206    0.0230430601
O        1.9925979962   -1.2542376615   -2.1979606306
O        4.7515819591   -1.8197151982   -1.8659694538
H        4.5176212343    2.4019641639    1.2645945020
H        6.7251119670    1.6064432092    0.4060417879
H        2.4583162756    1.1886298948    0.6337397081
H        6.8402228079   -0.3803351418   -1.0655841030
H        0.6963519784   -0.1950758728    0.3669006977
H        1.5232171611   -1.6574069019    0.8995548986
H        0.2960941693   -1.7439925519   -0.4059353545
H        5.6765147843   -2.0069296334   -2.0921821807
18   
Generated by ForceBalance from scan.xyz: Frame 22 of 24
C        4.5652760679    1.4590306686    0.6888048772
C        5.8010987138    1.0912017680    0.1473813138
C        3.4274337081    0.7374722381    0.3308361422
C        5.8857790143    0.0176881169   -0.7385230725
C        3.4775569990   -0.3374059328   -0.5740333023
C        4.7369860297   -0.6969751320   -1.1105113414
C        2.2133872515   -1.0303569648   -0.9864765866
C        1.0558467858   -1.0333429306    0.0049740468
O        2.0871653499   -1.5527736810   -2.0846796626
O        4.8188264437   -1.7614729087   -1.9575167362
H        4.4912682779    2.2938839263    1.3792212042
H        6.7025767633    1.6356332422    0.4160074555
H        2.4696428753    1.0246447372    0.7532395854
H        6.8514198334   -0.2720949287   -1.1507398427
H        0.5692743817   -0.0512523588    0.0241676671
H        1.3864826927   -1.2603819515    1.0228035346
H        0.3213434106   -1.7695057785   -0.3247576924
H        5.7513030522   -1.9026655557   -2.1881744704
18   
Generated by ForceBalance from scan.xyz: Frame 23 of 24
C        4.6051901374    1.4025273499    0.7101872687
C        5.8250366651    1.0684871416    0.1125531486
C        3.4647988220    0.6795402156    0.3686603171
C        5.8878957488    0.0269359719   -0.8105739078
C        3.4892121383   -0.3712249734   -0.5686232400
C        4.7358599358   -0.6953195964   -1.1617712040
C        2.2250232610   -1.0910941863   -0.9251415909
C        1.0110598111   -0.8892375505   -0.0235376765
O        2.1364666913   -1.8138890230   -1.9086446949
O        4.8111448945   -1.7205740884   -2.0537214217
H        4.5465580191    2.2126538121    1.4308537079
H        6.7295325105    1.6155315119    0.3653915167
H        2.5226909487    0.9439898755    0.8363952212
H        6.8400410409   -0.2348621408   -1.2703520113
H        0.6182274771    0.1290219200   -0.1220618348
H        1.2520263843   -1.0520882744    1.0315707592
H        0.2367151123   -1.5905814408   -0.3365271762
H        5.7386354386   -1.8248933857   -2.3229552279
18   
Generated by ForceBalance from scan.xyz: Frame 24 of 24
C        4.6175719744    1.3703453343    0.7433019060
C        5.8252044936    1.0844914067    0.0976513179
C        3.4864214599    0.6250096212    0.4213919426
C        5.8837517954    0.0672067173   -0.8517532131
C        3.5073892624   -0.4113221858   -0.5332159435
C        4.7424734206   -0.6846899228   -1.1765872128
C        2.2589105601   -1.1798849009   -0.8387197265
C        0.9847048703   -0.8031417703   -0.0881923584
O        2.2285397163   -2.0876898648   -1.6594186106
O        4.8170878750   -1.6746758154   -2.1067067346
H        4.5612228684    2.1615392828    1.4848801607
H        6.7222851828    1.6518745257    0.3314332126
H        2.5552818859    0.8540162914    0.9272925472
H        6.8250340415   -0.1537378514   -1.3534914860
H        0.7015011670    0.2379588581   -0.2762583451
H        1.1056019283   -0.9243603933    0.9935448673
H        0.1846368087   -1.4586320713   -0.4336433003
H        5.7307871510   -1.7170225646   -2.4344057832
