42

C     -1.21644   -0.50951    0.76254
C     -1.46952   -2.03190    0.70936
C     -0.09126   -0.35874    1.78145
C     -0.15122   -2.71994    1.15534
C     -0.34687   -3.62814    2.37316
C      0.91585   -4.38778    2.85946
C      3.60390   -1.07827    8.06570
C      2.80582   -1.06474    6.75401
C      3.89230    0.34457    8.55680
C      1.22088   -4.23693    4.35563
C      2.52775   -2.49625    6.28821
C      4.68094    0.36173    9.85073
N      0.79015   -1.54368    1.46364
O      0.28189   -1.78458    4.96242
O      2.43423   -1.97356    3.65528
F      4.91955    1.62637   10.26256
F      5.88260   -0.25514    9.71376
F      4.01858   -0.27392   10.85062
S      1.56349   -2.49016    4.75825
H     -0.89488   -0.12852   -0.21226
H     -2.10452    0.05162    1.05771
H     -2.26867   -2.30771    1.40147
H     -1.77197   -2.36167   -0.28600
H      0.49514    0.55755    1.70223
H     -0.42456   -0.48545    2.81343
H      0.32001   -3.27800    0.34327
H     -0.78923   -3.04016    3.18183
H     -1.11500   -4.34944    2.07901
H      1.80486   -4.08660    2.29718
H      0.79767   -5.45894    2.67357
H      4.54932   -1.61137    7.92005
H      3.04373   -1.62109    8.83436
H      1.85648   -0.53936    6.89649
H      3.36684   -0.53342    5.97867
H      4.47318    0.90574    7.81887
H      2.96388    0.89407    8.73811
H      0.38512   -4.53754    4.99247
H      2.11260   -4.80768    4.62978
H      3.44655   -3.04679    6.06703
H      1.92909   -3.05491    7.01480
H      1.34474   -1.33085    0.62983
H      1.46976   -1.73176    2.23999
