25   

C        0.0068802832   -0.0810818775    1.3459009558
C        1.6315915788   -0.6648274863    2.9781618795
C       -0.8535719821   -1.0031495168    1.9414225317
C        1.2903646388    0.0991544980    1.8649608425
C        0.7114609005   -1.5718246127    3.5098646874
C        2.3068155728    1.0640187604    1.3402247223
C        2.8336460144    4.1089757411    0.8928314698
C        2.3050046284   -2.4958920767    5.2195316194
C        2.6594767086    2.9351756942   -0.0658273797
N       -0.5059796298   -1.7384552424    3.0068045613
N        0.9822361133   -2.3719279976    4.5945044166
O        3.4815458852    1.0179539556    1.6971551510
O        1.7633965729    1.9602501259    0.4871598488
H       -0.3312174794    0.4860002435    0.4874230141
H        2.6076864278   -0.5615602634    3.4313667102
H       -1.8459646183   -1.1317047059    1.5250638187
H        1.8632493041    4.5666935678    1.1069456101
H        3.2856278087    3.7729916305    1.8309995954
H        3.4869404752    4.8621233431    0.4427674067
H        3.0576325902   -2.7700252823    4.4726685264
H        2.2829550428   -3.2792426564    5.9837900947
H        2.5914541751   -1.5549730730    5.7006516176
H        3.6356505050    2.4913429789   -0.2915583145
H        2.2423413737    3.3015892259   -1.0090685670
H        0.2079576695   -2.9812744286    4.8332253452
25   

C       -0.0024658931   -0.1855622607    1.2506521548
C        1.6132868913   -0.6612449422    2.9260970329
C       -0.8582975832   -1.0839515939    1.8878659587
C        1.2749854004    0.0322566773    1.7672048216
C        0.6986059698   -1.5484911913    3.4987577539
C        2.2751099011    0.9929847864    1.2060392413
C        2.9399152339    4.0421274867    1.0446188894
C        2.2868281443   -2.3591708996    5.2692585989
C        2.5523383636    3.0061495084   -0.0058419128
N       -0.5119845617   -1.7569807535    2.9943523092
N        0.9676015097   -2.2826221379    4.6294308843
O        3.4802311875    0.8495041644    1.3947145844
O        1.6782889778    2.0174135929    0.5575825281
H       -0.3372311074    0.3365518170    0.3628708852
H        2.5846057187   -0.5170504494    3.3784085577
H       -1.8460850071   -1.2447336021    1.4717608811
H        2.0430502616    4.5190938448    1.4509956164
H        3.4953666175    3.5702026769    1.8607346323
H        3.5734861112    4.8104845912    0.5920580868
H        3.0481918751   -2.6626605031    4.5428805252
H        2.2675929538   -3.1024401735    6.0726286076
H        2.5590273372   -1.3915323188    5.7033338932
H        3.4543458020    2.5440477779   -0.4226653610
H        2.0328631546    3.5071432939   -0.8287203223
H        0.1986078835   -2.8882616375    4.8934231986
25   

C       -0.0021575506   -0.2886241501    1.1555714954
C        1.6014939278   -0.6426243889    2.8713682775
C       -0.8464502939   -1.1728790106    1.8272963356
C        1.2641710229   -0.0203196030    1.6729261234
C        0.6994937834   -1.5202530041    3.4779182112
C        2.2388730825    0.9462395074    1.0763455470
C        3.0669146080    3.9589603255    1.1817643525
C        2.2831567359   -2.2060963146    5.3040831069
C        2.4691805827    3.0817327134    0.0863135075
N       -0.4994291819   -1.7818364043    2.9702527170
N        0.9696524303   -2.1883037933    4.6485063722
O        3.4468736141    0.7278405551    1.0820506239
O        1.6224066748    2.0714178149    0.6528364361
H       -0.3360478216    0.1858793299    0.2412529082
H        2.5641439124   -0.4500675741    3.3239280453
H       -1.8257678896   -1.3751237812    1.4092658539
H        2.2688942874    4.4218881508    1.7698587553
H        3.7012957178    3.3634985229    1.8452631939
H        3.6775525958    4.7480526225    0.7333694143
H        3.0586913417   -2.5265616274    4.6003431797
H        2.2710104299   -2.9113188978    6.1411920747
H        2.5298112581   -1.2135219924    5.6949408376
H        3.2718566239    2.6343153757   -0.5107222914
H        1.8715169853    3.7052995701   -0.5859656557
H        0.2112009751   -2.7980134006    4.9329656535
25   

C       -0.0108767190   -0.4012208571    1.0665664409
C        1.5751150576   -0.6201675352    2.8195098734
C       -0.8342053922   -1.2852230222    1.7643781264
C        1.2360438471   -0.0650175702    1.5894988981
C        0.6954026798   -1.5024030176    3.4516321924
C        2.1794534535    0.9113924770    0.9554244961
C        3.2269088187    3.8390059921    1.2785005521
C        2.2733128193   -2.0506830381    5.3287291197
C        2.4096026271    3.1389522139    0.1974172789
N       -0.4847648138   -1.8299563177    2.9385773143
N        0.9702888683   -2.1075722496    4.6548507893
O        3.3555589257    0.6294490052    0.7488130830
O        1.5883533516    2.1112718599    0.7700226404
H       -0.3455953765    0.0202956942    0.1270938829
H        2.5231797058   -0.3721136372    3.2752119188
H       -1.7984979953   -1.5414214453    1.3410379776
H        2.5618642571    4.2652767730    2.0354721641
H        3.9103511425    3.1325188179    1.7591348580
H        3.8172712875    4.6453124155    0.8335870574
H        3.0707692499   -2.3701777543    4.6494771156
H        2.2739132883   -2.7219659728    6.1933859657
H        2.4775442288   -1.0348585305    5.6825471837
H        3.0789785836    2.7286255137   -0.5671037511
H        1.7631467559    3.8724660797   -0.2945861985
H        0.2299922977   -2.7324866913    4.9539137820
25   

C       -0.0356939100   -0.5032009431    0.9955175092
C        1.5073228748   -0.5633423129    2.7973350023
C       -0.8241107195   -1.4123553725    1.7013169874
C        1.1693194218   -0.0679607045    1.5422480382
C        0.6649951868   -1.4768931505    3.4361058548
C        2.0741851249    0.9292091628    0.8797495816
C        3.3788901300    3.7274221683    1.3408467081
C        2.2236984938   -1.8757483154    5.3663334000
C        2.3405057755    3.2165353029    0.3469477784
N       -0.4778139573   -1.8933544588    2.9038163238
N        0.9426224691   -2.0258333479    4.6653640877
O        3.1685432630    0.6076393378    0.4290691468
O        1.5506166020    2.1719013569    0.9327287296
H       -0.3643228179   -0.1413053742    0.0295009201
H        2.4256171487   -0.2441969771    3.2687631217
H       -1.7565209251   -1.7442418269    1.2595223799
H        2.8849387304    4.0903913976    2.2470824098
H        4.0774146601    2.9289803286    1.6087998724
H        3.9460455605    4.5497560295    0.8950812084
H        3.0545073294   -2.1631924432    4.7132376064
H        2.2434430378   -2.5255030947    6.2470688752
H        2.3591466721   -0.8415429321    5.6992601791
H        2.8385917989    2.8697691041   -0.5655014246
H        1.6787586439    4.0412736724    0.0642387722
H        0.2336722009   -2.6863597276    4.9640317472
25   

C       -0.0350449779   -0.6214214792    0.9241987074
C        1.4465039748   -0.5115178132    2.7729245118
C       -0.7698952769   -1.5754854568    1.6283452593
C        1.1049630317   -0.0657313930    1.5003941698
C        0.6611542715   -1.4765358305    3.4088659274
C        1.9627876354    0.9576757738    0.8134414703
C        3.5371200105    3.5983220448    1.3240244867
C        2.1919555357   -1.7150845615    5.3875784756
C        2.2984089263    3.2756364263    0.4941289668
N       -0.4269578071   -1.9963439535    2.8539831706
N        0.9459304061   -1.9770111028    4.6570298730
O        2.9035927438    0.6344003577    0.0965405077
O        1.5505995361    2.2105863176    1.0979212205
H       -0.3526544197   -0.3205581439   -0.0661850507
H        2.3223345976   -0.1116955137    3.2627780789
H       -1.6539526170   -1.9970876320    1.1642113703
H        3.2462137157    3.8705998737    2.3429879976
H        4.2081021459    2.7347832807    1.3614496853
H        4.0761957326    4.4377803643    0.8753576143
H        3.0600258129   -1.9451461110    4.7607417128
H        2.2397520247   -2.3483472788    6.2791914863
H        2.2360797933   -0.6685984998    5.7064262624
H        2.5930454707    3.0201969094   -0.5299692851
H        1.6622880927    4.1646209459    0.4385936745
H        0.2837518319   -2.6871740694    4.9492756173
25   

C       -0.0277068517   -0.7187295835    0.8644960771
C        1.3754249784   -0.4491834931    2.7559473177
C       -0.6980838410   -1.7240517261    1.5612430259
C        1.0313365455   -0.0455824336    1.4697048514
C        0.6585231933   -1.4712849578    3.3836936943
C        1.8358574251    1.0114430516    0.7719612644
C        3.6636304976    3.4768746733    1.2804857003
C        2.1440298736   -1.5498630877    5.4095517717
C        2.2765734302    3.3321219183    0.6618513927
N       -0.3613862183   -2.0930083168    2.8050979043
N        0.9493016642   -1.9303833007    4.6462899527
O        2.5740999307    0.7392424156   -0.1686606146
O        1.5694971188    2.2396673084    1.2656115009
H       -0.3291968108   -0.4701630940   -0.1454340849
H        2.1987158136    0.0306111257    3.2646742844
H       -1.5219941074   -2.2331023060    1.0746528536
H        3.5791404945    3.6306266184    2.3604480508
H        4.2619959738    2.5803347620    1.0918408647
H        4.1782497429    4.3366102891    0.8416335807
H        3.0479777312   -1.7095387169    4.8122549727
H        2.2201209829   -2.1656044244    6.3114181925
H        2.0855132796   -0.4998109973    5.7140203199
H        2.3646622277    3.1958454612   -0.4218608843
H        1.7105530934    4.2537309412    0.8299848703
H        0.3430649484   -2.6922426107    4.9297276981
25   

C       -0.0086037717   -0.7793793315    0.8176300528
C        1.3109634356   -0.3814774233    2.7450938763
C       -0.6141698816   -1.8317470729    1.5037179396
C        0.9698053838   -0.0121552857    1.4471367435
C        0.6627042846   -1.4550454265    3.3615680550
C        1.7132082991    1.0875839118    0.7530705716
C        3.7586081930    3.3800028081    1.2212346591
C        2.0880059390   -1.3943869800    5.4311553332
C        2.2811257788    3.3824325617    0.8405215582
N       -0.2854762823   -2.1625302427    2.7602712818
N        0.9554113606   -1.8820968487    4.6349146394
O        2.2447578048    0.9101321374   -0.3381049997
O        1.6120859241    2.2560960688    1.4249874581
H       -0.2952025304   -0.5667088884   -0.2050206278
H        2.0782800610    0.1663194859    3.2725205856
H       -1.3769185491   -2.4118761482    0.9973582971
H        3.8661703750    3.3978174838    2.3099134866
H        4.2537047572    2.4873173970    0.8269286492
H        4.2513313480    4.2631544961    0.8043231301
H        3.0214126070   -1.4837633857    4.8653604762
H        2.1853586062   -1.9920330109    6.3430942345
H        1.9317159827   -0.3498360784    5.7196443936
H        2.1775473227    3.3824146835   -0.2503457899
H        1.8158671712    4.3006294644    1.2125993755
H        0.4052321017   -2.6887372665    4.9086561408
25   

C        0.0460178462   -0.8233058843    0.7748349334
C        1.2668838117   -0.3354897300    2.7450069431
C       -0.5027219977   -1.9199053526    1.4385712609
C        0.9446829862    0.0132579000    1.4358329513
C        0.6795992314   -1.4563599467    3.3381340675
C        1.6187093045    1.1674762983    0.7636076975
C        3.8305561575    3.3160053223    1.1465346019
C        2.0219019586   -1.2943026866    5.4574007715
C        2.3131556838    3.4149347719    1.0209281448
N       -0.1925135006   -2.2301990682    2.7047363347
N        0.9601849509   -1.8654841219    4.6200812483
O        1.9595845793    1.1094873736   -0.4137393647
O        1.6882116498    2.2482142631    1.5742785240
H       -0.2229518222   -0.6282786927   -0.2563447104
H        1.9732483308    0.2634642096    3.3013938701
H       -1.2035790504   -2.5524612940    0.9062039275
H        4.1138353538    3.1958795940    2.1964895790
H        4.2069319519    2.4625367546    0.5743025632
H        4.2958793071    4.2266569977    0.7582973989
H        2.9803656715   -1.3145166706    4.9279834596
H        2.1281389795   -1.8823305113    6.3745800082
H        1.7775769130   -0.2640165836    5.7359035542
H        2.0345519038    3.5527575051   -0.0298391732
H        1.9639907634    4.2954426936    1.5693466321
H        0.4610906838   -2.7105694817    4.8750640035
25   

C        0.0996741128   -0.8761714095    0.7511833219
C        1.2213561849   -0.3218557174    2.7609736049
C       -0.3999542565   -2.0086553126    1.3924178412
C        0.9256943321    0.0121473110    1.4410200236
C        0.6867555578   -1.4808248123    3.3307469151
C        1.5266111330    1.2178166999    0.7911165458
C        3.8713518163    3.2486367311    1.0126190845
C        1.9345343811   -1.2390342701    5.5002676082
C        2.3601008742    3.4029721097    1.1550618127
N       -0.1120561345   -2.3057489405    2.6665213753
N        0.9475299905   -1.8771955252    4.6209402785
O        1.6811399181    1.2744423757   -0.4252513266
O        1.7815435498    2.2016743472    1.6846133256
H       -0.1533626571   -0.6918552728   -0.2861737081
H        1.8679910257    0.3132865156    3.3488678197
H       -1.0432727997   -2.6801136943    0.8356105372
H        4.3178615860    3.0083535079    1.9821305822
H        4.1091618684    2.4514067114    0.3017191385
H        4.3074237276    4.1823345941    0.6457510154
H        2.9134571452   -1.1974596761    5.0110835757
H        2.0399626374   -1.8191553017    6.4225586474
H        1.6131625353   -0.2266545456    5.7659261684
H        1.9190574934    3.6608068292    0.1856508231
H        2.1465157810    4.2289923913    1.8406471898
H        0.4929405899   -2.7523125477    4.8571035890
25   

C        0.1840439280   -0.9004590180    0.7300060582
C        1.1930840094   -0.3049847980    2.7862085373
C       -0.2740474275   -2.0666859171    1.3404058485
C        0.9360440605    0.0249057155    1.4567222080
C        0.7042530844   -1.4993529087    3.3237162085
C        1.4674248711    1.2804174288    0.8405157902
C        3.9019915937    3.2224377597    0.8634507355
C        1.8449789310   -1.2102390129    5.5461855345
C        2.4412601055    3.3950783216    1.2686289524
N       -0.0180670652   -2.3618533183    2.6212918395
N        0.9331524432   -1.8934627924    4.6207090578
O        1.4447071580    1.4499733012   -0.3752261941
O        1.9096351660    2.1599118889    1.7689637425
H       -0.0468801828   -0.7177245622   -0.3128778923
H        1.7742425456    0.3554338259    3.4130211566
H       -0.8584300347   -2.7657727568    0.7534384109
H        4.4907570592    2.8753021603    1.7177877049
H        3.9899736690    2.4962297858    0.0496029353
H        4.3081206056    4.1786191420    0.5209139011
H        2.8398595342   -1.1098108032    5.0996000921
H        1.9433479719   -1.7925677004    6.4678604620
H        1.4568182057   -0.2198226272    5.8053713771
H        1.8587476123    3.7596021157    0.4150485432
H        2.3742815706    4.1522213235    2.0561508945
H        0.5191829177   -2.7950499487    4.8305063715
25   

C       -0.2165355285   -0.1450523519    1.1671078822
C        1.6037171909   -0.9779460576    2.4288019946
C       -1.0725457320   -0.6644294178    2.1364778721
C        1.1663382290   -0.2939569980    1.2958189243
C        0.6809504756   -1.4630801809    3.3603948033
C        2.1228154593    0.2448069853    0.2788622929
C        4.7248572100    1.9348507108   -0.0428111149
C        2.4251310511   -2.2690242125    4.9830513772
C        4.4007575108    0.4708909737   -0.3241103254
N       -0.6293717377   -1.3147498119    3.2197489399
N        1.0438404896   -2.1312367992    4.5057536814
O        1.7210500535    0.8448500743   -0.7141556708
O        3.4125524201   -0.0123886527    0.5971802610
H       -0.6329993247    0.3739709635    0.3117973449
H        2.6571957799   -1.1409015325    2.6026438465
H       -2.1411791171   -0.5352735367    2.0095910418
H        3.8371903386    2.5579824673   -0.1882730464
H        5.0786445496    2.0507687046    0.9859769837
H        5.5068886390    2.2799065976   -0.7254100991
H        2.9026954428   -1.2867448724    5.0628276330
H        3.0034616084   -2.9048174255    4.3047654881
H        2.4305745387   -2.7313495571    5.9752653516
H        5.3107930791   -0.1263544735   -0.2097904606
H        4.0639253016    0.3569649980   -1.3606515677
H        0.2438689627   -2.3944702768    5.0705498882
25   

C       -0.2422358694   -0.2203953877    1.1243834143
C        1.6037034535   -0.9329982818    2.4227966294
C       -1.0812660420   -0.7914956665    2.0795592090
C        1.1442244831   -0.2867055744    1.2766654845
C        0.6966879253   -1.4741057492    3.3387404265
C        2.0854181185    0.3288016418    0.2899209015
C        4.8122249589    1.8146569931    0.0504838716
C        2.4582191795   -2.1555859518    4.9990817980
C        4.3351831955    0.4497363930   -0.4364518747
N       -0.6176372685   -1.4113988626    3.1723056337
N        1.0801139752   -2.1100897436    4.4956310610
O        1.6814431254    1.0949063337   -0.5802370978
O        3.3595006478   -0.0920785284    0.4652459360
H       -0.6738258880    0.2762346565    0.2633296426
H        2.6627656219   -1.0195228403    2.6169427749
H       -2.1534812388   -0.7281612613    1.9342995738
H        3.9808821699    2.5259728469    0.0696008099
H        5.2328937696    1.7289978428    1.0568349742
H        5.5837590505    2.2003695520   -0.6222094041
H        2.8697057194   -1.1440357655    5.0812744437
H        3.0890243612   -2.7561538779    4.3356283359
H        2.4749520654   -2.6112587388    5.9942450102
H        5.1891853636   -0.2332112064   -0.4834228695
H        3.9308300367    0.5369321195   -1.4511891605
H        0.2883033558   -2.4214247488    5.0473125298
25   

C       -0.2565974654   -0.2887255595    1.0772264691
C        1.5968584167   -0.8835585500    2.4247445353
C       -1.0818249844   -0.9130458545    2.0113280196
C        1.1261735148   -0.2730978143    1.2641520783
C        0.7033468655   -1.4821345484    3.3174986614
C        2.0555403988    0.4204452873    0.3194364472
C        4.8863822768    1.6903011794    0.1066714656
C        2.4622123161   -2.0450777178    5.0239057585
C        4.2563362962    0.4658155235   -0.5503333817
N       -0.6076450177   -1.5042466480    3.1159272204
N        1.0970247752   -2.0891722113    4.4863601798
O        1.6649786268    1.3332108203   -0.4023312337
O        3.2908826578   -0.1320214487    0.3264492013
H       -0.6947608409    0.1875267535    0.2081436535
H        2.6553794769   -0.8941106481    2.6405726462
H       -2.1520945815   -0.9152589600    1.8402501013
H        4.1272449536    2.4548823127    0.2980738348
H        5.3571508595    1.4087179090    1.0533228274
H        5.6485012483    2.1152828877   -0.5529552142
H        2.8061597551   -1.0090880405    5.1119048992
H        3.1463651452   -2.6059081865    4.3787926555
H        2.4831980964   -2.4959611452    6.0211718084
H        5.0387786134   -0.2684561237   -0.7661673210
H        3.8013407547    0.7487407634   -1.5062036691
H        0.3132094107   -2.4496937565    5.0191931733
25   

C       -0.2467571810   -0.3616856113    1.0403242408
C        1.5955274571   -0.8465957482    2.4477772817
C       -1.0606361216   -1.0444659086    1.9434216119
C        1.1245164764   -0.2642390156    1.2737204557
C        0.7133949681   -1.5072008010    3.3071560073
C        2.0434978861    0.5074387316    0.3801788917
C        4.9563320835    1.5598116496    0.1289555966
C        2.4444127416   -1.9547949269    5.0742918045
C        4.1695988397    0.5163248121   -0.6586039512
N       -0.5860545651   -1.6126762936    3.0603714375
N        1.1063901924   -2.0932364144    4.4868252187
O        1.6822486808    1.5477841747   -0.1610092934
O        3.2170185075   -0.1383438967    0.1910952182
H       -0.6842384775    0.0974891041    0.1619844002
H        2.6460244504   -0.7859350523    2.6928081579
H       -2.1226520562   -1.1121864471    1.7378032309
H        4.2875069141    2.3408570061    0.5033316832
H        5.4643967062    1.0877714745    0.9752008543
H        5.7064490509    2.0253216438   -0.5169279646
H        2.7137687262   -0.8975848797    5.1696589151
H        3.1885818035   -2.4694713203    4.4577965886
H        2.4587712412   -2.4003740721    6.0740612940
H        4.8625965257   -0.2329172862   -1.0540329227
H        3.6766500851    0.9897389119   -1.5151131464
H        0.3297829318   -2.5049484008    4.9924488990
25   

C       -0.2263035638   -0.4371273845    1.0142894489
C        1.5843951871   -0.8080383827    2.4970110842
C       -1.0283565247   -1.1828071266    1.8777599723
C        1.1230993140   -0.2501357501    1.3081342066
C        0.7145782560   -1.5356804372    3.3135766905
C        2.0296696126    0.5950169907    0.4669097161
C        4.9956225112    1.4483950648    0.1025637111
C        2.3944690530   -1.8741777073    5.1525318984
C        4.0514175623    0.6176702168   -0.7613104481
N       -0.5629860553   -1.7279777764    3.0102807732
N        1.0973777864   -2.1042947306    4.5050493671
O        1.7184714691    1.7353828991    0.1391607915
O        3.1182500865   -0.0962882479    0.0616781194
H       -0.6566536546    0.0008432838    0.1220101516
H        2.6174549272   -0.6759087797    2.7840027316
H       -2.0737624701   -1.3208385996    1.6271427584
H        4.4363287791    2.2038117107    0.6629398506
H        5.5279614734    0.8016014142    0.8063973416
H        5.7279562330    1.9573682415   -0.5308254038
H        2.5843334877   -0.8010170813    5.2604111784
H        3.1999983000   -2.3331748575    4.5701371457
H        2.3950307334   -2.3210771190    6.1518173489
H        4.6358283412   -0.1048362926   -1.3396195090
H        3.5333144700    1.2662359497   -1.4766087630
H        0.3298983132   -2.5714484767    4.9752012458
25   

C       -0.1719767734   -0.4912872884    0.9950891212
C        1.5738987443   -0.7582040912    2.5761807842
C       -0.9692343430   -1.2985990462    1.8063566937
C        1.1409319227   -0.2152010615    1.3706004875
C        0.7103087664   -1.5513323816    3.3363599936
C        2.0469643606    0.6835808577    0.5815031330
C        5.0414053754    1.3253279425    0.0344901080
C        2.3014369004   -1.7958948390    5.2665000409
C        3.9361578263    0.7405536084   -0.8396120299
N       -0.5328162308   -1.8239380268    2.9597134089
N        1.0641609297   -2.1095885847    4.5416002220
O        1.8398859303    1.8893529827    0.4972626146
O        3.0159077256   -0.0191290977   -0.0433951811
H       -0.5786393992   -0.0778847304    0.0805595083
H        2.5788849066   -0.5626089782    2.9205069346
H       -1.9866044994   -1.5050756257    1.4948184948
H        4.6214961151    2.0203539875    0.7679933387
H        5.5678296169    0.5235720441    0.5609519642
H        5.7588222454    1.8684079878   -0.5875601703
H        2.4103963845   -0.7130777728    5.3890427369
H        3.1698912765   -2.1944400673    4.7320076614
H        2.2731447294   -2.2489369917    6.2626139021
H        4.3829139855    0.0791964037   -1.5886291460
H        3.4228684460    1.5448832007   -1.3784545055
H        0.3039307048   -2.6309116447    4.9641665699
25   

C       -0.0790564508   -0.5503169296    0.9641136196
C        1.5730880981   -0.7082871741    2.6583183946
C       -0.8699695519   -1.4172286849    1.7184250111
C        1.1784032318   -0.1785902047    1.4342456214
C        0.7183616316   -1.5652969971    3.3564815090
C        2.0927780181    0.7569022311    0.6967483108
C        5.0819674018    1.1859798220   -0.0732448386
C        2.1960780231   -1.7222174121    5.3831110940
C        3.8352677011    0.8762054640   -0.8960675303
N       -0.4761771135   -1.9183924112    2.8976957320
N        1.0324324925   -2.1123874939    4.5777654261
O        2.0508303813    1.9700487254    0.8701981182
O        2.9135645128    0.0826175792   -0.1352794962
H       -0.4475238665   -0.1692970219    0.0200214221
H        2.5393152930   -0.4500843231    3.0665223619
H       -1.8456146362   -1.6953706622    1.3370068429
H        4.8208155556    1.7792807533    0.8082938238
H        5.5598821619    0.2561256931    0.2492715489
H        5.7932758049    1.7564799799   -0.6775335663
H        2.2219178939   -0.6358256739    5.5190690728
H        3.1224718661   -2.0545456335    4.9034283842
H        2.1355165640   -2.1867475429    6.3724663745
H        4.1259013595    0.3167759615   -1.7908290203
H        3.3695013189    1.8097440519   -1.2313356622
H        0.2840803793   -2.6880684562    4.9476035124
25   

C       -0.1916875619    0.4776496657    1.9952030201
C        1.5950536691   -0.5203387440    3.1958135702
C       -0.9808967694   -0.6161659029    2.3511024105
C        1.1296548116    0.5444761474    2.4313202580
C        0.7421270495   -1.5840784427    3.5020306192
C        2.0642035502    1.6652146493    2.0816458433
C        2.5879706251    3.8704187226   -0.0467225903
C        2.5119693737   -2.9334699662    4.6712713746
C        3.3551895386    2.6098430498    0.3406598797
N       -0.5205165034   -1.6322346958    3.0943511275
N        1.1324113946   -2.6751360950    4.2414881110
O        2.4469764217    2.4727180597    2.9214852962
O        2.4514899346    1.5905213845    0.7904744583
H       -0.6101068203    1.2678446080    1.3847807107
H        2.6149117706   -0.5169050004    3.5525550682
H       -2.0089543486   -0.6484488207    2.0093741108
H        1.8570322536    3.6403732276   -0.8277008604
H        2.0660319933    4.2827885102    0.8221667148
H        3.2820794088    4.6261384284   -0.4257487724
H        3.1864683014   -2.9405898868    3.8085514015
H        2.5720123657   -3.9120122305    5.1582266163
H        2.8395585057   -2.1730337447    5.3876750759
H        4.0978491830    2.8479461287    1.1104035805
H        3.8987438752    2.2377222267   -0.5334525645
H        0.3886907906   -3.3544844638    4.3572788925
25   

C       -0.1111929555    0.4083996095    1.8778431387
C        1.6169818908   -0.5496494558    3.1933458803
C       -0.9240172771   -0.6627587865    2.2492678337
C        1.1903809309    0.4867981722    2.3689902084
C        0.7426908352   -1.5923741546    3.5105849079
C        2.1632637171    1.5647232543    1.9994691637
C        2.5815914932    3.9770380843    0.0847446692
C        2.4550554922   -2.9060300810    4.7990634612
C        3.2614318773    2.6150107491    0.1870972135
N       -0.5035433697   -1.6478844420    3.0554506559
N        1.0943893436   -2.6548389568    4.3087341811
O        2.7714245523    2.2049227484    2.8511756456
O        2.3353237666    1.6271883076    0.6609239646
H       -0.4944282049    1.1703745876    1.2109103753
H        2.6231140178   -0.5394605852    3.5878621651
H       -1.9368436842   -0.7040797443    1.8656109464
H        1.7171522043    3.9163647714   -0.5832357914
H        2.2488460139    4.3135682470    1.0714091906
H        3.2841737796    4.7140632939   -0.3149111040
H        3.1607949072   -2.9516202778    3.9628949962
H        2.4889540301   -3.8651971950    5.3254731726
H        2.7626640011   -2.1203968551    5.4969058426
H        4.1366834721    2.6840690155    0.8427444694
H        3.6184709530    2.3166162514   -0.8035977210
H        0.3413653769   -3.3241021716    4.4226873779
25   

C       -0.0554133196    0.3215689639    1.7613406276
C        1.6311893514   -0.5846201496    3.1663688020
C       -0.8890186804   -0.7197597043    2.1693975992
C        1.2362900203    0.4113282767    2.2778993148
C        0.7371651555   -1.5994208831    3.5170907083
C        2.2366573867    1.4520709803    1.8829800443
C        2.5848938603    4.0588588988    0.2269725542
C        2.4034684645   -2.8610468563    4.9131233556
C        3.1463934936    2.6503707161    0.0571416615
N       -0.4988867640   -1.6652719985    3.0360516282
N        1.0574943398   -2.6221775976    4.3778975986
O        3.0168977693    1.9369438324    2.6971431312
O        2.2153311514    1.6766181279    0.5502564483
H       -0.4149825234    1.0511108940    1.0464533016
H        2.6280926274   -0.5665121488    3.5840415315
H       -1.8931969925   -0.7705759686    1.7647238148
H        1.6291452602    4.1484060539   -0.2980376669
H        2.4336631039    4.2852346555    1.2868673984
H        3.2843495000    4.7903986557   -0.1879443824
H        3.1279688739   -2.9580098911    4.0976232535
H        2.4141318543   -3.7912676444    5.4900290286
H        2.7038215129   -2.0427177724    5.5756698318
H        4.1116910836    2.5700448787    0.5694526873
H        3.3244829012    2.4607062166   -1.0060104875
H        0.2945709530   -3.2769902442    4.5084202635
25   

C       -0.0131326395    0.2326632626    1.6523118794
C        1.6473094957   -0.6079978665    3.1289485267
C       -0.8614873534   -0.7766177453    2.1073986790
C        1.2752272714    0.3374285869    2.1769973632
C        0.7388005761   -1.5931724206    3.5240680555
C        2.2928626729    1.3492863493    1.7544323251
C        2.6183563061    4.1246356769    0.3855718585
C        2.3739516489   -2.7885810754    5.0121136566
C        3.0333385387    2.7164440869   -0.0299081999
N       -0.4912665947   -1.6754541912    3.0304736927
N        1.0371829062   -2.5675279829    4.4467658376
O        3.2076254917    1.6910239546    2.4992488603
O        2.1031844690    1.7486963904    0.4769495955
H       -0.3610631861    0.9256431623    0.8963122996
H        2.6375901361   -0.5785954986    3.5617672503
H       -1.8615385410   -0.8402604158    1.6944009146
H        1.6097261575    4.3421674403    0.0216685347
H        2.6344251497    4.2223909108    1.4753684695
H        3.3113949721    4.8567754611   -0.0389498981
H        3.1081070421   -2.9356603862    4.2128958213
H        2.3686470242   -3.6862548703    5.6385193235
H        2.6732712263   -1.9381199510    5.6333867522
H        4.0505193175    2.5092626611    0.3210333547
H        3.0463505088    2.6538566035   -1.1225592522
H        0.2666842472   -3.2077189909    4.6026588757
25   

C        0.0079498469    0.1322045637    1.5457535228
C        1.6517749399   -0.6378501857    3.0786437968
C       -0.8513051888   -0.8437446223    2.0501065642
C        1.2967201392    0.2531015914    2.0689075051
C        0.7322685331   -1.5920601224    3.5215158570
C        2.3240808932    1.2414399867    1.6137058883
C        2.6697280851    4.1512835129    0.5571097639
C        2.3446277009   -2.7108658719    5.0920684665
C        2.9106865445    2.7865933062   -0.0810913191
N       -0.4945379647   -1.6929838028    3.0237365004
N        1.0148358076   -2.5135136398    4.5018486852
O        3.3513452074    1.4436900336    2.2565442006
O        1.9878642539    1.8184027493    0.4385311760
H       -0.3350653723    0.7865094810    0.7538591492
H        2.6373281266   -0.5952202707    3.5210118459
H       -1.8497048416   -0.9213360504    1.6354957696
H        1.6402482486    4.4745281944    0.3761513197
H        2.8459029860    4.1055783681    1.6361428314
H        3.3517695507    4.8892377720    0.1249137742
H        3.0850373299   -2.9097305096    4.3100056092
H        2.3265290932   -3.5701852722    5.7699051565
H        2.6448397067   -1.8276944749    5.6654401193
H        3.9476341362    2.4748135329    0.0871466577
H        2.7657419602    2.8659672193   -1.1630583099
H        0.2382433649   -3.1383627977    4.6869143969
25   

C        0.0014647753    0.0232529184    1.4471722462
C        1.6331767285   -0.6590573192    3.0337092134
C       -0.8620721882   -0.9224979078    1.9993761795
C        1.2886617472    0.1698137672    1.9688291751
C        0.7095277246   -1.5862156329    3.5229892231
C        2.3164778368    1.1413422201    1.4788156812
C        2.7401600557    4.1390550051    0.7286299121
C        2.3081456769   -2.6137529020    5.1680697109
C        2.7782792629    2.8526384386   -0.0906054235
N       -0.5130961955   -1.7157040995    3.0217504191
N        0.9826265967   -2.4480323318    4.5587151070
O        3.4312454099    1.2111947269    1.9909388893
O        1.8634430729    1.8860432065    0.4460764992
H       -0.3383535334    0.6338909050    0.6198219110
H        2.6136319741   -0.5916102086    3.4841739439
H       -1.8578818312   -1.0221891469    1.5832609755
H        1.7247786618    4.5463129614    0.7420795982
H        3.0625321844    3.9477227668    1.7566642795
H        3.4115371805    4.8809485943    0.2865761800
H        3.0537018237   -2.8562324944    4.4033848653
H        2.2842892284   -3.4341817922    5.8923207385
H        2.6055668774   -1.7004753683    5.6937467582
H        3.8002506261    2.4580222746   -0.1163859226
H        2.4892494605    3.0759388073   -1.1223791868
H        0.2046077791   -3.0621323740    4.7716545448
