33

C     -1.09239   -0.49765    0.06108
C      1.89742    0.75160   -0.63487
C      1.94450   -0.75202   -0.93505
C      0.49624    1.37715   -0.60995
C      1.18518   -1.62187    0.07656
C     -0.41305    0.80230    0.48829
C     -1.36962    6.34181    4.01056
C     -0.65111    5.05512    3.58934
C     -1.47152    4.22193    2.59573
C     -0.74864    2.94515    2.17446
N     -0.27137   -1.58423   -0.06162
O     -2.29675   -0.56735   -0.17427
O     -1.88400    2.99982   -0.25737
S     -1.76707    2.04234    0.91725
H      2.38845    0.93672    0.33094
H      2.49540    1.27858   -1.38745
H      1.54500   -0.95047   -1.93699
H      2.99285   -1.07488   -0.93979
H      0.58765    2.45729   -0.46279
H     -0.00223    1.25951   -1.57672
H      1.47621   -2.66787   -0.04873
H      1.47141   -1.34282    1.09929
H      0.15605    0.63790    1.41064
H     -2.32732    6.11901    4.49456
H     -0.76557    6.92228    4.71593
H     -1.57723    6.97840    3.14329
H      0.31647    5.30729    3.13601
H     -0.42657    4.45159    4.47876
H     -2.44054    3.96587    3.04351
H     -1.68551    4.81453    1.69978
H      0.22298    3.17646    1.72379
H     -0.60129    2.26232    3.01997
H     -0.74357   -2.40933   -0.41348
