29   

C        3.1035496182   -1.2030968108    1.7475705293
C        1.4094143305   -1.5964362832    0.0801022746
C        2.2017493976   -0.4164521405    2.4735293772
C        0.5139549887   -0.8075630737    0.8124703203
C        8.6198841505   -4.8922388760    2.0928951940
C        2.7327594007   -1.8046142647    0.5267251272
C        0.9008297967   -0.2086886665    2.0125518217
C        8.7125050470   -5.4066853919    0.8272830588
C        6.8303890714   -4.2771210964    0.5701293600
C        3.7024165726   -2.6399621917   -0.2168134320
C        9.8548953979   -6.2649960450    0.3804652746
C        3.4692370824   -3.0192585591   -1.6609711313
N        7.6922853068   -5.0439780753   -0.0420331082
N        4.7790732773   -3.0445971561    0.4268929749
N        5.7313935274   -3.8343937077   -0.1530658126
S        7.1883009697   -3.9127460118    2.2551141858
Cl      -0.2216723543    0.7730875076    2.9210347478
H        4.1037425780   -1.3357283447    2.1474641039
H        1.0390831104   -2.0530888465   -0.8288101513
H        2.5138338680    0.0377399320    3.4067079477
H       -0.4973293580   -0.6604229208    0.4515279590
H        9.3380633339   -5.0648473185    2.8840645996
H        9.5787547981   -7.3193247639    0.4681298903
H       10.0983057101   -6.0473165444   -0.6632948386
H       10.7387800228   -6.0742349225    0.9956405970
H        4.3787745623   -2.8489488894   -2.2441601544
H        3.2051100231   -4.0786449707   -1.7262217150
H        2.6817315820   -2.4232523203   -2.1245646135
H        5.6920569345   -4.1722184924   -1.1092321229
29   

C        3.1284952971   -1.0459908113    1.6552812826
C        1.3576945562   -1.7893400649    0.1977013957
C        2.2096946182   -0.2686615128    2.3701242655
C        0.4443881145   -1.0091683016    0.9171883620
C        8.6461432097   -4.8701765682    2.0732963487
C        2.7207557983   -1.8210723467    0.5526514399
C        0.8607744933   -0.2415816754    2.0077713875
C        8.7254222611   -5.3854154614    0.8070950457
C        6.8343395110   -4.2658332872    0.5729303623
C        3.7068963046   -2.6279424336   -0.1996191748
C        9.8255470352   -6.3019171265    0.3697767515
C        3.5191343883   -2.9059614776   -1.6734895488
N        7.6836969449   -5.0424242557   -0.0444749680
N        4.7652373019   -3.0595397909    0.4544349716
N        5.7283835063   -3.8245749772   -0.1403560936
S        7.2192564483   -3.8859451675    2.2483842130
Cl      -0.2829203261    0.7289163292    2.9018193915
H        4.1689882960   -1.0428034768    1.9642207119
H        0.9865825437   -2.3816140361   -0.6304198329
H        2.5450590992    0.3198822787    3.2160763955
H       -0.6012705894   -0.9991411807    0.6324404565
H        9.3650659818   -5.0540009886    2.8612487369
H        9.4317648530   -7.0530522451   -0.3207913823
H       10.6042055959   -5.7262860638   -0.1379233617
H       10.2625214056   -6.8121729318    1.2328084522
H        4.4213520832   -2.6238165191   -2.2239331285
H        3.3314134576   -3.9722442073   -1.8286437036
H        2.6870043639   -2.3325156614   -2.0883670577
H        5.6896741795   -4.1501182194   -1.1008370454
29   

C        3.1969415057   -0.8544876347    1.5023057106
C        1.4085632430   -1.9078045493    0.2737030893
C        2.2619441632   -0.0623810028    2.1791456475
C        0.4780706302   -1.1125809137    0.9535894811
C        8.6263769401   -4.9676059310    2.1600458845
C        2.7840038695   -1.7956411955    0.5432406672
C        0.8951406317   -0.1837850301    1.9117122405
C        8.7551843427   -5.4146520427    0.8722086476
C        6.8742065654   -4.2809591750    0.6247774851
C        3.7850856355   -2.6001014474   -0.1946948177
C        9.8717923005   -6.3085231834    0.4298146522
C        3.6586278056   -2.7858355416   -1.6899542826
N        7.7472776032   -5.0249612063    0.0003085903
N        4.8125516559   -3.0628704697    0.4843073258
N        5.7976009313   -3.8011921001   -0.1082150844
S        7.1934722665   -3.9914707023    2.3316719296
Cl      -0.2689346123    0.8059934714    2.7569678245
H        4.2528818808   -0.7408452717    1.7260611031
H        1.0531641548   -2.6220466584   -0.4605381334
H        2.5975481005    0.6541063336    2.9197462138
H       -0.5796215128   -1.2140637389    0.7401754336
H        9.3139449432   -5.1946081664    2.9645423679
H        9.5074712928   -7.0156899531   -0.3207507672
H       10.6731277575   -5.7073171710   -0.0081794175
H       10.2693360623   -6.8709370307    1.2793864642
H        4.5605443277   -2.4194144263   -2.1888038412
H        3.5319350116   -3.8467942816   -1.9234598388
H        2.8023961011   -2.2312941307   -2.0830979480
H        5.7993746390   -4.0747854089   -1.0855449914
29   

C        3.1945945422   -0.6967485437    1.3754722603
C        1.4329128410   -2.0557568936    0.4444381674
C        2.2396048072    0.0834492521    2.0382825592
C        0.4813810392   -1.2722742655    1.1087137719
C        8.5813589715   -5.0958119265    2.1797712928
C        2.8039912446   -1.7845038453    0.5790956423
C        0.8752822581   -0.1970397063    1.9117726423
C        8.7416839751   -5.4695583440    0.8722842098
C        6.8764267942   -4.3069195105    0.6404699839
C        3.8199422704   -2.5680245209   -0.1687465865
C        9.8625634783   -6.3475462972    0.4093535447
C        3.7329049996   -2.6503882328   -1.6765113982
N        7.7607962055   -5.0214180060   -0.0023468295
N        4.8242582196   -3.0710568339    0.5137605170
N        5.8233412630   -3.7781340963   -0.0929881866
S        7.1515342942   -4.1184232443    2.3689908552
Cl      -0.3142922334    0.7790069976    2.7372506970
H        4.2489013602   -0.4633633157    1.4831107164
H        1.1035273843   -2.8821205045   -0.1757149923
H        2.5566064819    0.9150253809    2.6567187847
H       -0.5737900720   -1.4956849865    1.0026789310
H        9.2449511063   -5.3748086871    2.9880324799
H        9.5132328480   -7.0064302915   -0.3906537262
H       10.6809073859   -5.7302094899    0.0290706684
H       10.2314079034   -6.9621960125    1.2353620328
H        4.6316509856   -2.2186360595   -2.1263259935
H        3.6472343324   -3.6951205624   -1.9884663007
H        2.8617785172   -2.0995776509   -2.0424482573
H        5.8517713559   -3.9945724880   -1.0841391011
29   

C        3.1355292131   -0.5266297060    1.1914526255
C        1.5006931968   -2.2121226317    0.6401358497
C        2.1465815666    0.2145302708    1.8494783716
C        0.5143797017   -1.4674457365    1.2982782356
C        8.5144716012   -5.2264851205    2.1985011499
C        2.8251535144   -1.7529678542    0.5870476221
C        0.8277571238   -0.2483107927    1.9086431792
C        8.7153214961   -5.5268623046    0.8777827619
C        6.8720235245   -4.3287071377    0.6509313171
C        3.8697234008   -2.5044761948   -0.1649324797
C        9.8415941252   -6.3914799008    0.4029086709
C        3.8223741245   -2.5064553167   -1.6770567680
N        7.7699288791   -5.0167480132   -0.0019836725
N        4.8397694656   -3.0598862788    0.5245016290
N        5.8509099927   -3.7456643798   -0.0866294840
S        7.0897473063   -4.2432490781    2.3956714406
Cl      -0.4051077032    0.6799259559    2.7256978674
H        4.1536093129   -0.1536807648    1.1532419557
H        1.2374740103   -3.1528886565    0.1692106103
H        2.4005141080    1.1576411271    2.3190946618
H       -0.5048801491   -1.8336435641    1.3374443119
H        9.1469341475   -5.5596443269    3.0111890382
H        9.5122521204   -6.9996737403   -0.4443241708
H       10.6789107409   -5.7641280496    0.0855226646
H       10.1757661541   -7.0564154982    1.2043596386
H        4.7269279519   -2.0414682985   -2.0794912533
H        3.7562113730   -3.5334256512   -2.0472583437
H        2.9519592868   -1.9466712422   -2.0314577831
H        5.9129295151   -3.9042683039   -1.0871412376
29   

C        3.0034815596   -0.3343971224    0.9185717896
C        1.6776434666   -2.3478872748    0.8599658543
C        1.9672034644    0.3257848352    1.5901135427
C        0.6432039988   -1.6842943721    1.5306907519
C        8.3997039554   -5.3778389924    2.2277008700
C        2.8677903795   -1.6776422547    0.5427311068
C        0.7772687090   -0.3415980390    1.8997440309
C        8.6546354093   -5.6114151961    0.9028102979
C        6.8638807589   -4.3391445269    0.6589577968
C        3.9649478917   -2.3725855586   -0.1962605202
C        9.7746813570   -6.4862646641    0.4318839592
C        3.9609854567   -2.3338121619   -1.7087062093
N        7.7697855301   -5.0209071190    0.0104660317
N        4.8802294037   -2.9973672021    0.5077720427
N        5.8994713372   -3.6813397052   -0.0919068035
S        6.9988382821   -4.3587806344    2.4139653016
Cl      -0.5155167418    0.4851457731    2.7330304797
H        3.9211998690    0.1968050121    0.6904356696
H        1.5592608092   -3.3903306282    0.5848867131
H        2.0834615763    1.3643944536    1.8769271524
H       -0.2725332310   -2.2120301093    1.7703054152
H        8.9814629375   -5.7765503601    3.0487046089
H        9.4621395192   -7.0462316103   -0.4540746866
H       10.6404617281   -5.8698521818    0.1752431205
H       10.0593049002   -7.1957010244    1.2140769342
H        4.8804553373   -1.8662671502   -2.0723712875
H        3.8967085395   -3.3497337575   -2.1086505203
H        3.1047891173   -1.7573816219   -2.0711125716
H        6.0066638696   -3.7859534629   -1.0956938997
29   

C        2.9266190872   -0.2049464314    0.7402586567
C        1.8909939328   -2.3438275630    1.1472009104
C        1.9100393120    0.4232367577    1.4702023873
C        0.8763294944   -1.7123768347    1.8763394962
C        8.1357928374   -5.7396620516    2.1602234995
C        2.9194927134   -1.5953817800    0.5557691179
C        0.8740195190   -0.3234362408    2.0410717774
C        8.5361218184   -5.7608976472    0.8509771647
C        6.7643798103   -4.4605385698    0.6168290554
C        4.0163370746   -2.2703719942   -0.1956486169
C        9.7646994111   -6.4807199434    0.3884201255
C        4.0553815740   -2.1532705588   -1.7033692952
N        7.7525281307   -5.0228023310   -0.0261091195
N        4.8574896412   -3.0114417665    0.4886448026
N        5.8799948767   -3.6835279269   -0.1186291102
S        6.6995918563   -4.7715835756    2.3483304841
Cl      -0.3926334955    0.4625895028    2.9504302043
H        3.7280405298    0.3903204154    0.3166402226
H        1.8874240395   -3.4235910980    1.0420981949
H        1.9234332755    1.4988108728    1.6022903606
H        0.0855956287   -2.3023768042    2.3247938147
H        8.6442726118   -6.2462626544    2.9703310960
H        9.4923529276   -7.4716651645    0.0152588238
H       10.2450886871   -5.9175334044   -0.4166909864
H       10.4749175598   -6.5910680632    1.2127730099
H        5.0062440623   -1.7152064792   -2.0196963058
H        3.9516209678   -3.1429242119   -2.1574650407
H        3.2387086903   -1.5167954880   -2.0562253018
H        6.0855867226   -3.6390372663   -1.1114849526
29   

C        2.7504928152   -0.1970145339    0.5370552073
C        2.0605863671   -2.3657431559    1.3334581336
C        1.7154595646    0.3975743638    1.2692189331
C        1.0273890137   -1.7671714710    2.0640857701
C        8.0294185131   -5.8618744668    2.1408786462
C        2.9241458514   -1.5903818988    0.5431104580
C        0.8423715718   -0.3813955414    2.0353433247
C        8.4921619391   -5.8096164626    0.8532298036
C        6.7413136373   -4.4825930413    0.6121124256
C        4.0504625404   -2.2175130858   -0.1945211894
C        9.7373510525   -6.5115606440    0.4079547914
C        4.1629668036   -2.0243869921   -1.6904131478
N        7.7559435004   -5.0145860852   -0.0150523080
N        4.8520469138   -3.0109660059    0.4805369392
N        5.8975444519   -3.6560360867   -0.1169196872
S        6.5912246018   -4.8944630202    2.3170993100
Cl      -0.4465384017    0.3635128101    2.9480362456
H        3.4246885135    0.4294678278   -0.0364583690
H        2.2005800801   -3.4407356505    1.3818228132
H        1.5879873021    1.4736481183    1.2513665310
H        0.3659583223   -2.3800321234    2.6652334025
H        8.4956356499   -6.4193844632    2.9429416793
H        9.4776651473   -7.4774987543   -0.0335499511
H       10.2579012841   -5.9073058242   -0.3404225991
H       10.4075197122   -6.6741852920    1.2568143158
H        5.1228788511   -1.5612503413   -1.9357817043
H        4.0954105287   -2.9911115824   -2.1977306838
H        3.3568073370   -1.3817270142   -2.0555697218
H        6.1519617540   -3.5526068237   -1.0939534670
29   

C        2.5840723532   -0.2594293576    0.3842318107
C        2.1942482605   -2.3597322321    1.5005114719
C        1.5297577019    0.3148048310    1.1051687525
C        1.1414796019   -1.7811024066    2.2188626704
C        7.9538336051   -5.9770891085    2.1176685532
C        2.9221799324   -1.6121161030    0.5576784838
C        0.7968750390   -0.4404410682    2.0254367532
C        8.4671568707   -5.8575278275    0.8538746780
C        6.7251310353   -4.5188470102    0.6135190943
C        4.0617295866   -2.2114743719   -0.1742817620
C        9.7297872003   -6.5361741340    0.4217692714
C        4.2462227872   -1.9359550012   -1.6495133009
N        7.7647216472   -5.0175376948    0.0000841610
N        4.8396507432   -3.0420066312    0.4859496820
N        5.9089027697   -3.6549767143   -0.1034419288
S        6.5082062647   -5.0195699588    2.2872894571
Cl      -0.5161067099    0.2800018559    2.9233365329
H        3.1445145079    0.3589138438   -0.3079298736
H        2.4517155713   -3.3991675376    1.6772536339
H        1.2776667458    1.3584375859    0.9574974765
H        0.5887522919   -2.3745367571    2.9377590248
H        8.3888052576   -6.5763446880    2.9070897245
H        9.4887395253   -7.4764252156   -0.0814544500
H       10.2796087514   -5.8931225764   -0.2713022491
H       10.3653647004   -6.7455108840    1.2868407449
H        5.1986205051   -1.4247403396   -1.8162804039
H        4.2476855910   -2.8769918397   -2.2072070824
H        3.4359111589   -1.3115845181   -2.0353787230
H        6.2025068471   -3.4980514307   -1.0621870602
29   

C        2.4325338196   -0.3423954475    0.2529355462
C        2.3247521605   -2.3078157938    1.6403793261
C        1.3612655182    0.2120848741    0.9646390393
C        1.2547403671   -1.7488623183    2.3483122113
C        7.8819728631   -6.0805050525    2.0832404024
C        2.9281775610   -1.6189496408    0.5693049311
C        0.7609122884   -0.4855621831    2.0156763286
C        8.4417421063   -5.9029666140    0.8462455755
C        6.7106583828   -4.5503647225    0.6049351525
C        4.0705077969   -2.2061535077   -0.1653726598
C        9.7187137530   -6.5641382915    0.4294664877
C        4.3228451297   -1.8549009390   -1.6136882773
N        7.7720201536   -5.0219740019    0.0076281759
N        4.8306781302   -3.0666682233    0.4792773544
N        5.9209442380   -3.6523159459   -0.0995923971
S        6.4317777623   -5.1284176918    2.2443250619
Cl      -0.5735363301    0.2112757990    2.9004730063
H        2.8795336400    0.2475921050   -0.5384151155
H        2.6875392504   -3.2895880850    1.9277512766
H        0.9919533103    1.1976758521    0.7062197202
H        0.8037965677   -2.2985222401    3.1662564206
H        8.2869608535   -6.7175371783    2.8589216296
H        9.4953476959   -7.4805783591   -0.1234019646
H       10.2931201868   -5.8919883250   -0.2143032742
H       10.3229932994   -6.8130500348    1.3064013337
H        5.2465462385   -1.2754569035   -1.6990488947
H        4.4248784010   -2.7685357688   -2.2065124239
H        3.4979605559   -1.2784908933   -2.0387322586
H        6.2502148893   -3.4487538797   -1.0377503515
29   

C        2.5516747244   -0.0660144021    0.8413084550
C        2.1134854448   -2.3680644473    1.3863078404
C        1.7248641752    0.3339872099    1.8990290405
C        1.2891260669   -1.9622127283    2.4414994330
C        5.7510063267   -7.3190757706   -1.1786916962
C        2.7611230709   -1.4265233467    0.5566655755
C        1.0851106260   -0.6076959103    2.7070390708
C        6.4006120303   -6.7057488753   -2.2164530901
C        5.2573744110   -4.9610214055   -1.4862466880
C        3.6282788696   -1.8676322497   -0.5591567609
C        7.3909845500   -7.4135979812   -3.0880193265
C        4.0616311173   -0.9102166669   -1.6450817028
N        6.1198795844   -5.3562634154   -2.3837322580
N        4.0199605810   -3.1259530828   -0.5634163220
N        4.8633384154   -3.6304371738   -1.5127869724
S        4.7125264742   -6.1913558661   -0.3508534024
Cl       0.0571625598   -0.1014355798    4.0247059696
H        3.0355310232    0.7173352736    0.2723777964
H        2.2431343131   -3.4318918110    1.2147929243
H        1.5794143620    1.3884643754    2.1028185487
H        0.8025955195   -2.7058078337    3.0618942860
H        5.8706161658   -8.3589552291   -0.9032714578
H        6.8980725236   -7.7571413456   -4.0014851041
H        8.2032471843   -6.7325003926   -3.3572854000
H        7.8136655433   -8.2750985797   -2.5633380479
H        5.1110394721   -0.6381316562   -1.5002896074
H        3.9552230149   -1.3832234150   -2.6255673826
H        3.4537532778   -0.0045947595   -1.6687901526
H        5.2900743080   -3.0799020510   -2.2508654577
29   

C        2.3237398333   -0.0866313973    0.6461110515
C        2.3095859811   -2.3330388155    1.5024690315
C        1.4352989827    0.2940095873    1.6608210292
C        1.4228729310   -1.9456657412    2.5124918016
C        5.6937221092   -7.3486252412   -1.1862346243
C        2.7842542972   -1.4107702184    0.5405130985
C        0.9767248013   -0.6281456362    2.6018121730
C        6.3688487131   -6.7427227785   -2.2119928676
C        5.3038112525   -4.9652925548   -1.4435166483
C        3.7223105480   -1.8444774327   -0.5209381216
C        7.3218659976   -7.4763269918   -3.1036597236
C        4.2523150168   -0.8930025920   -1.5680491953
N        6.1491589059   -5.3786229404   -2.3491232888
N        4.0927139457   -3.1098757480   -0.5242288890
N        4.9621873247   -3.6200887137   -1.4470850159
S        4.7068554603   -6.1939246295   -0.3327624562
Cl      -0.1301763701   -0.1429896226    3.8622322779
H        2.6198476111    0.7009910378   -0.0305638492
H        2.6257127967   -3.3709188118    1.4776085141
H        1.0940806201    1.3208693594    1.7225701780
H        1.0769563587   -2.6755213060    3.2351287414
H        5.7659889410   -8.3988220283   -0.9344779599
H        6.8061103384   -7.7880227971   -4.0159919638
H        8.1570339531   -6.8236996908   -3.3732954913
H        7.7159624730   -8.3607523445   -2.5951737794
H        5.3424032398   -0.8412243191   -1.4926092896
H        3.9954996020   -1.2687453579   -2.5628404474
H        3.8689064271    0.1214800713   -1.4963910494
H        5.4044168665   -3.0752678726   -2.1802725082
29   

C        2.0925954732   -0.1962426710    0.4886399674
C        2.4660838899   -2.2666190434    1.6558840366
C        1.1485214371    0.1703821455    1.4564821043
C        1.5218393130   -1.8948746063    2.6191622984
C        5.6649309985   -7.3363337296   -1.2459185232
C        2.7776713247   -1.4210588956    0.5685505681
C        0.8553803499   -0.6722901894    2.5301975881
C        6.3514904721   -6.7158383884   -2.2551928955
C        5.3426584014   -4.9353896879   -1.4206875704
C        3.7812420112   -1.8232405119   -0.4427294970
C        7.2730826573   -7.4474081159   -3.1808672709
C        4.3652058702   -0.8227846618   -1.4131727084
N        6.1721393989   -5.3418063842   -2.3439707669
N        4.1409075456   -3.0908014424   -0.4709179384
N        5.0337907546   -3.5827695279   -1.3807891702
S        4.7173185041   -6.1831022899   -0.3473763951
Cl      -0.3238547486   -0.2090561148    3.7318805929
H        2.2507357818    0.4943902717   -0.3295250774
H        2.9614241769   -3.2261437172    1.7649077304
H        0.6296407596    1.1183124657    1.3740226287
H        1.3028164910   -2.5620940506    3.4446209521
H        5.7063101877   -8.3964058940   -1.0313411262
H        6.7406459706   -7.7071290864   -4.0999180943
H        8.1281041485   -6.8138232854   -3.4329839051
H        7.6398676282   -8.3632481233   -2.7088959661
H        5.4492834921   -0.9525970392   -1.4781751559
H        3.9346160356   -0.9777235812   -2.4065851337
H        4.1938807918    0.2087721442   -1.1022945936
H        5.4804554778   -3.0277539354   -2.1035385709
29   

C        1.9062605249   -0.2971349334    0.3442880173
C        2.5575167215   -2.1525009439    1.7347213900
C        0.9396336264    0.0656741070    1.2906441403
C        1.5898499697   -1.7855810597    2.6767990638
C        5.6950335745   -7.3023657965   -1.2517384980
C        2.7426732884   -1.4071612947    0.5531882423
C        0.7740038392   -0.6719281690    2.4655274632
C        6.3763688227   -6.6718663844   -2.2583600313
C        5.3241310475   -4.9094300021   -1.4391528255
C        3.7547389855   -1.8085589353   -0.4487221090
C        7.2618244170   -7.4001848580   -3.2211915601
C        4.4070082073   -0.7809911037   -1.3451221020
N        6.1554582995   -5.3052208723   -2.3654046654
N        4.0862601938   -3.0818097527   -0.5018857649
N        4.9960590379   -3.5612793066   -1.4013917077
S        4.7279058552   -6.1629829737   -0.3562476086
Cl      -0.4338448631   -0.2158195211    3.6412263672
H        1.9802278873    0.2926301582   -0.5617135237
H        3.1716967526   -3.0264373804    1.9273158396
H        0.3038087489    0.9251441692    1.1128821419
H        1.4675431304   -2.3716806170    3.5801469441
H        5.7425228728   -8.3635093036   -1.0438312594
H        7.1818700908   -6.9493952339   -4.2144447855
H        8.3004977270   -7.3378430828   -2.8854936025
H        6.9693747626   -8.4519422534   -3.2875929361
H        5.4952945088   -0.8792538417   -1.2945969980
H        4.0877241599   -0.9356820512   -2.3797188276
H        4.1551891967    0.2375904234   -1.0410858952
H        5.4513732605   -2.9974256383   -2.1118532999
29   

C        1.7822378618   -0.4242069420    0.2297570962
C        2.6811494371   -2.0083720418    1.8082590584
C        0.7978319913   -0.0637345674    1.1582324698
C        1.6950693211   -1.6448027232    2.7327273110
C        5.5965510702   -7.3204353506   -1.3379871524
C        2.7515270176   -1.3907701377    0.5467547359
C        0.7470923138   -0.6670368305    2.4183268991
C        6.3394092780   -6.6762818173   -2.2909794554
C        5.2957336742   -4.9135816006   -1.4614180489
C        3.7694402211   -1.8021769389   -0.4472620673
C        7.2491087442   -7.3968477991   -3.2368940896
C        4.4936446477   -0.7595532068   -1.2687349946
N        6.1585558246   -5.3014251647   -2.3619037132
N        4.0665438270   -3.0817577634   -0.5199764437
N        5.0015544426   -3.5587672420   -1.3944336255
S        4.6187447448   -6.1849332243   -0.4491778628
Cl      -0.4830209036   -0.2155694914    3.5725309651
H        1.7821565105    0.0493278894   -0.7455877905
H        3.3985604351   -2.7794712847    2.0703271934
H        0.0594283946    0.6866934629    0.9010462510
H        1.6597586015   -2.1284786932    3.7018987410
H        5.6070596166   -8.3886778339   -1.1640893989
H        7.2326605601   -6.9073670001   -4.2147992381
H        8.2711681514   -7.3807422741   -2.8488767465
H        6.9281869933   -8.4353584599   -3.3578520088
H        5.5727043229   -0.8430566473   -1.1098926821
H        4.2801074114   -0.9086644898   -2.3309887200
H        4.1834110411    0.2489893565   -0.9824862977
H        5.5053889791   -2.9856991769   -2.0635888781
29   

C        1.6701449596   -0.5938102025    0.1485782222
C        2.8006292698   -1.8317746692    1.8815290552
C        0.6669971570   -0.2407793209    1.0595964342
C        1.7954955253   -1.4767236792    2.7888570289
C        5.4989235468   -7.3299996470   -1.4341849862
C        2.7624172527   -1.3778752743    0.5533502181
C        0.7223637340   -0.6747699946    2.3879842862
C        6.3013872053   -6.6756477184   -2.3301605127
C        5.2770546712   -4.9118221989   -1.4791030620
C        3.8015750236   -1.7925242901   -0.4233856540
C        7.2277365058   -7.3902182809   -3.2643753225
C        4.5946035282   -0.7368428138   -1.1611385888
N        6.1659035850   -5.2939908002   -2.3564446806
N        4.0616339309   -3.0768665343   -0.5262993756
N        5.0212852089   -3.5515440621   -1.3747464288
S        4.5188075073   -6.1969240016   -0.5448962091
Cl      -0.5309060978   -0.2335891490    3.5210592421
H        1.5966878458   -0.2587378423   -0.8801442138
H        3.6165243947   -2.4697446411    2.2053469886
H       -0.1677826978    0.3701396672    0.7364487155
H        1.8421213144   -1.8308457892    3.8120327067
H        5.4690603897   -8.4036642847   -1.3006377678
H        7.2698400498   -6.8635625794   -4.2219886095
H        8.2318547277   -7.4238216262   -2.8330748752
H        6.8788061046   -8.4117856781   -3.4398262959
H        5.6568418608   -0.8295202369   -0.9171145064
H        4.4664563581   -0.8600730791   -2.2402691440
H        4.2575123491    0.2641391473   -0.8771463089
H        5.5725300902   -2.9712953497   -1.9988155454
29   

C        1.5738173093   -0.8245973682    0.0642534545
C        2.8953145956   -1.5926248152    1.9288131380
C        0.5486251967   -0.4584048240    0.9450250536
C        1.8682688652   -1.2253159866    2.8064101682
C        5.3814039782   -7.3487717301   -1.5734537704
C        2.7670216958   -1.3807728306    0.5480870660
C        0.6877550737   -0.6513013225    2.3235008024
C        6.2488367742   -6.6875206715   -2.4011882044
C        5.2521755527   -4.9240711074   -1.5170315841
C        3.8483878308   -1.7989052280   -0.3897328649
C        7.1902764354   -7.3960683149   -3.3248462833
C        4.7045268840   -0.7374621044   -1.0444716605
N        6.1664624046   -5.3017582794   -2.3698953992
N        4.0608634037   -3.0862388806   -0.5398468926
N        5.0426115849   -3.5605921319   -1.3627019338
S        4.4033974910   -6.2184492468   -0.6784342774
Cl      -0.5920845359   -0.1932711437    3.4195836605
H        1.4412451891   -0.6788689327   -1.0021704847
H        3.7982668715   -2.0515207210    2.3174502787
H       -0.3671631654   -0.0252150830    0.5601029691
H        1.9820888457   -1.3910993517    3.8713191236
H        5.3052488583   -8.4252633245   -1.4907681641
H        7.2944898919   -6.8309273400   -4.2553903998
H        8.1719938943   -7.4860909084   -2.8520727777
H        6.8131661919   -8.3952554289   -3.5605591428
H        5.7483987412   -0.8609129142   -0.7420252435
H        4.6376380746   -0.8222476438   -2.1327901519
H        4.3673846299    0.2596301577   -0.7466334981
H        5.6456106796   -2.9758083661   -1.9322866917
29   

C        1.5613619961   -1.0618340796    0.1393338493
C        3.0559647557   -1.2965200479    2.0166981511
C        0.5459934513   -0.6347824523    1.0038620176
C        2.0388043644   -0.8682550081    2.8782198074
C        5.0980205327   -7.3557211852   -1.8985165185
C        2.8286965820   -1.3933844943    0.6363144241
C        0.7758317428   -0.5313757782    2.3799519207
C        6.1297814844   -6.7054871652   -2.5210559817
C        5.1478011538   -4.9439214897   -1.6168849432
C        3.9189654320   -1.8241890141   -0.2901936870
C        7.1957132453   -7.4211588859   -3.2912782014
C        4.8340175014   -0.7719456378   -0.8776584857
N        6.1573700184   -5.3276683469   -2.3514006621
N        4.0389137214   -3.1070756592   -0.5423969663
N        5.0280928041   -3.5863699381   -1.3536342869
S        4.0753995446   -6.2229960386   -1.0578124453
Cl      -0.4903971593    0.0060712394    3.4555824714
H        1.3645393189   -1.1406300909   -0.9243746293
H        4.0282584940   -1.5581069601    2.4199253536
H       -0.4307830105   -0.3819066151    0.6083330425
H        2.2260149791   -0.7965981799    3.9432640425
H        4.9412189412   -8.4264779055   -1.9173277611
H        6.9517980810   -7.4078532977   -4.3569846208
H        8.1592264460   -6.9259025952   -3.1411716016
H        7.2775059504   -8.4587939285   -2.9554787300
H        5.8671218067   -0.9629799247   -0.5737102041
H        4.7750437229   -0.7935854426   -1.9695989695
H        4.5417980354    0.2225972166   -0.5281337924
H        5.7462989185   -3.0115620140   -1.7823526763
29   

C        1.5517503003   -1.4138460068    0.2083646926
C        3.0730733796   -0.9840273137    2.0299814129
C        0.4851171980   -0.9630956749    0.9954173176
C        2.0038543571   -0.5330492885    2.8134996633
C        5.0096546864   -7.3234842862   -2.0642917336
C        2.8566745827   -1.4376884628    0.7203230245
C        0.7010318789   -0.5184343321    2.3041090387
C        6.0846007370   -6.6791111155   -2.6157806748
C        5.1454418306   -4.9376181717   -1.6309123643
C        3.9945139527   -1.8595807158   -0.1449185505
C        7.1447519910   -7.3899473459   -3.3983090444
C        4.9367950362   -0.8033812494   -0.6791110319
N        6.1610206801   -5.3165851251   -2.3595511189
N        4.0738118573   -3.1277972088   -0.4767564779
N        5.0702796133   -3.5952630639   -1.2858906176
S        4.0066030052   -6.2034025800   -1.1840780948
Cl      -0.6299562063    0.0478156753    3.2823677810
H        1.3682465183   -1.7544991782   -0.8052031277
H        4.0766423343   -0.9838029822    2.4410104823
H       -0.5202063755   -0.9562738946    0.5907476704
H        2.1814192138   -0.1891052396    3.8257735285
H        4.8121817773   -8.3838923940   -2.1537616089
H        6.9246413606   -7.3175854788   -4.4668205416
H        8.1195019554   -6.9332904543   -3.2046668966
H        7.1873258219   -8.4446011728   -3.1119050610
H        5.9602740085   -1.0204876461   -0.3605993516
H        4.9005169250   -0.7891460097   -1.7722100415
H        4.6527436918    0.1845653585   -0.3051350003
H        5.8237380695   -3.0244554953   -1.6553549379
29   

C        1.5734138330   -1.6549796411    0.2956960588
C        3.0681684538   -0.7371115825    1.9512019830
C        0.4762250409   -1.2065257116    1.0407444763
C        1.9677770409   -0.2899195524    2.6926020383
C        4.9248678737   -7.2829213134   -2.1787182576
C        2.8841721437   -1.4364733401    0.7476348019
C        0.6628429052   -0.5209344420    2.2454061897
C        6.0451886264   -6.6616803488   -2.6623068842
C        5.1346881650   -4.9224415251   -1.6470946068
C        4.0419314028   -1.8614908119   -0.0795509985
C        7.1079659574   -7.3842664865   -3.4303659924
C        5.0412538034   -0.8269699491   -0.5473965324
N        6.1634791522   -5.3139282019   -2.3500541125
N        4.0872852781   -3.1177258949   -0.4634139914
N        5.0964994790   -3.5922831630   -1.2524480287
S        3.9307286804   -6.1575702663   -1.2950940218
Cl      -0.7070387159    0.0398426890    3.1717539008
H        1.4101313058   -2.1833172124   -0.6380148823
H        4.0707702355   -0.5431255973    2.3160589406
H       -0.5303510768   -1.3900539104    0.6835414762
H        2.1222442308    0.2427231976    3.6237162996
H        4.6907662287   -8.3305350376   -2.3172112069
H        6.9332220822   -7.2641601446   -4.5029536019
H        8.0908044208   -6.9735247131   -3.1823855147
H        7.0993842906   -8.4495762762   -3.1830381966
H        6.0404237507   -1.0824484324   -0.1833735273
H        5.0599316886   -0.7937409128   -1.6405740207
H        4.7717925221    0.1649791280   -0.1737767204
H        5.8863574688   -3.0382607791   -1.5674366895
29   

C        1.6171136347   -1.8208713071    0.4035976886
C        3.0576184874   -0.5343238574    1.8482598266
C        0.5032509895   -1.3869786300    1.1321672699
C        1.9397941481   -0.1034159145    2.5729854408
C        4.8418288871   -7.2307579758   -2.2737879760
C        2.9136934256   -1.4067286714    0.7549840386
C        0.6537324694   -0.5252299801    2.2226548729
C        6.0039735911   -6.6419005116   -2.6952544929
C        5.1249741677   -4.8977881883   -1.6608576656
C        4.0806579251   -1.8407763793   -0.0473040898
C        7.0654355421   -7.3839616302   -3.4463705030
C        5.1489215952   -0.8440212651   -0.4366326053
N        6.1639359734   -5.3101656423   -2.3363233502
N        4.0991608713   -3.0873586840   -0.4675207457
N        5.1227031418   -3.5793412462   -1.2270231561
S        3.8598816369   -6.0924040018   -1.3931915266
Cl      -0.7374469259    0.0149740986    3.1292904214
H        1.4747343758   -2.4885461946   -0.4401615249
H        4.0421915749   -0.1929436665    2.1476525034
H       -0.4886437041   -1.7208833039    0.8508742591
H        2.0661286302    0.5641416129    3.4173572754
H        4.5715577346   -8.2631835328   -2.4541893673
H        6.9372044706   -7.2231673733   -4.5202084140
H        8.0538348228   -7.0225920367   -3.1486408841
H        7.0040460151   -8.4551995827   -3.2347042633
H        6.1084465494   -1.1386250263   -0.0022014758
H        5.2491389318   -0.8110659716   -1.5254115834
H        4.8945612361    0.1601478756   -0.0871245171
H        5.9459080688   -3.0483169215   -1.4923101207
29   

C        1.6594230187   -1.9602811568    0.5259989799
C        3.0169009629   -0.3770498433    1.7360611095
C        0.5367056428   -1.5495755089    1.2541764955
C        1.8894170137    0.0288526855    2.4602586754
C        4.7739594963   -7.1695800647   -2.3793305207
C        2.9227413522   -1.3801659598    0.7512358250
C        0.6402507068   -0.5514069704    2.2260710976
C        5.9780236804   -6.6167278953   -2.7251808068
C        5.1154487022   -4.8668307310   -1.6867506920
C        4.0968534930   -1.8178811448   -0.0356499507
C        7.0468543304   -7.3802602538   -3.4436041116
C        5.2280385839   -0.8607286212   -0.3340763512
N        6.1708246837   -5.3024365198   -2.3208826945
N        4.0986071956   -3.0531319523   -0.4919760117
N        5.1400623455   -3.5614270976   -1.2156575313
S        3.7932012747   -6.0167299522   -1.5165041060
Cl      -0.7622194343   -0.0415527500    3.1329007292
H        1.5424897298   -2.7380761284   -0.2219602837
H        3.9683935541    0.0890187488    1.9635368443
H       -0.4260063542   -2.0099156978    1.0650684385
H        1.9805374144    0.7996769945    3.2166384234
H        4.4734492205   -8.1850990014   -2.6027715412
H        6.9859070902   -7.1779365318   -4.5163456651
H        8.0316619599   -7.0738381217   -3.0797191513
H        6.9277138505   -8.4541681810   -3.2743217375
H        6.1325971342   -1.1807128124    0.1909470790
H        5.4312575084   -0.8473754780   -1.4088359179
H        4.9819253586    0.1600353410   -0.0326199599
H        5.9954226460   -3.0556477992   -1.4219323524
29   

C        1.7214130773   -2.0872880607    0.6633168289
C        2.9509882110   -0.2399091604    1.6037913304
C        0.5889487040   -1.6977835463    1.3878217439
C        1.8130205129    0.1426232264    2.3243525750
C        4.7133421218   -7.1099030629   -2.4877529735
C        2.9282127725   -1.3613675554    0.7464252832
C        0.6224757642   -0.5791744414    2.2220836438
C        5.9541539159   -6.5965320381   -2.7559771753
C        5.1058103381   -4.8407769047   -1.7158228238
C        4.1126750862   -1.8012238488   -0.0246090483
C        7.0295636111   -7.3830886587   -3.4388538262
C        5.3029071174   -0.8940093406   -0.2340282901
N        6.1755074884   -5.3015405001   -2.3066224963
N        4.0989032205   -3.0230802759   -0.5190195263
N        5.1550180206   -3.5501586058   -1.2075247297
S        3.7335556013   -5.9415309200   -1.6448991354
Cl      -0.7923965032   -0.0965331384    3.1245459904
H        1.6456024496   -2.9641715429    0.0283092337
H        3.8493544340    0.3469840924    1.7461386420
H       -0.3272636308   -2.2704163326    1.3032294832
H        1.8514390726    1.0069254795    2.9771365296
H        4.3863729000   -8.1066807163   -2.7542953291
H        7.0384401175   -7.1451359460   -4.5059583398
H        8.0038261296   -7.1309991085   -3.0105734069
H        6.8565621011   -8.4555721980   -3.3124426234
H        6.1480354729   -1.2495289765    0.3623659321
H        5.5929575213   -0.8972198037   -1.2887448492
H        5.0872022094    0.1419126937    0.0315018133
H        6.0386707608   -3.0731395680   -1.3544109263
29   

C        1.8203703882   -2.2238510969    0.9047885438
C        2.8406084367   -0.1130713609    1.4469935314
C        0.6603739520   -1.8349766150    1.5842423946
C        1.6755520964    0.2672555870    2.1244888938
C        4.7058897819   -7.0544249138   -2.5561944288
C        2.9452913146   -1.3747898125    0.8137165683
C        0.5759621739   -0.5869687144    2.1998594440
C        5.9607990225   -6.5557416198   -2.7834268481
C        5.1312106490   -4.8288645761   -1.6816798014
C        4.1542549362   -1.8260670897    0.0859375352
C        7.0302658343   -7.3334969806   -3.4854281472
C        5.3867781581   -0.9620058969   -0.0444295951
N        6.2010634258   -5.2863429694   -2.2747127423
N        4.1309385633   -3.0313414670   -0.4486928993
N        5.1968344718   -3.5612605400   -1.1201712740
S        3.7364711368   -5.9033502013   -1.6782669796
Cl      -0.8727940996   -0.1041858080    3.0467818456
H        1.8260301612   -3.2072409437    0.4459138732
H        3.6422639879    0.6112591628    1.4424232407
H       -0.1856405279   -2.5104388687    1.6345920649
H        1.6204944318    1.2393019756    2.6007090609
H        4.3630578607   -8.0315106673   -2.8713026035
H        7.0575422918   -7.0511982648   -4.5413706910
H        8.0033817731   -7.1182815941   -3.0350156064
H        6.8355598689   -8.4068016714   -3.4065817162
H        6.2346003618   -1.4616474162    0.4332708809
H        5.6224324020   -0.8205996600   -1.1033142953
H        5.2872375610    0.0249251215    0.4016098253
H        6.0899260796   -3.0938073267   -1.2378139490
