25   

C       -0.2394541040   -5.5681374182   -3.7790585923
C        0.0371699185   -4.7721854020   -2.5916559826
C       -0.4762088151   -4.7867473650   -4.8794523163
C       -0.0320743430   -1.0294296917   -1.8552106703
C        0.2404608229   -2.3720519471   -1.8595235012
C       -0.0001617853   -3.4173698093   -2.8393193816
C        0.4367672064   -0.5476013405   -0.5688651522
C       -2.2025690923   -0.3142746429   -2.9222603901
C        0.3307968032    0.8454420628   -0.0217312513
C       -0.6832567285   -0.1624552428   -2.9153015920
N        0.9374679016   -1.5381735883    0.1208474684
N        0.8188893528   -2.6537362351   -0.6506856914
O       -2.7561084521   -0.5384159014   -3.9863034141
O       -2.8670043441   -0.1639160305   -1.7486628809
S       -0.3707744533   -3.0698988982   -4.5109459257
H       -0.2590962606   -6.6526580031   -3.7915475792
H        0.2371221852   -5.2145181430   -1.6235391956
H       -0.7057014813   -5.1694994163   -5.8672813394
H       -0.5539619122    1.3487711860   -0.4195611125
H        0.2574787945    0.8139217727    1.0691786245
H        1.2215023708    1.4166057425   -0.2961439326
H       -0.2779032626   -0.3949025504   -3.9020403397
H       -0.4505385364    0.8884055487   -2.7297405312
H        1.1440010287   -3.5779749082   -0.3797189929
H       -3.8067503516   -0.3117049918   -1.9414172602
25   

C       -0.2555248196   -5.4380138492   -4.0003945221
C       -0.1126029562   -4.6790522566   -2.7661238609
C       -0.1104074948   -4.6471887802   -5.1106667116
C        0.0582134143   -1.0041052582   -1.9074920875
C        0.3398292724   -2.3406023283   -1.9612229066
C        0.1325320198   -3.3438956784   -2.9927386050
C        0.4917199037   -0.5759477956   -0.5902257046
C       -2.1106293919   -0.2647426860   -2.9049898533
C        0.3750194941    0.7945904356    0.0089256034
C       -0.5933415674   -0.1148992380   -2.9450579565
N        0.9684914075   -1.5968541850    0.0732782319
N        0.8747282051   -2.6797696321   -0.7478975860
O       -2.6548030713   -0.9382226777   -3.7645149256
O       -2.7859373300    0.4097595760   -1.9409661929
S        0.2027502305   -2.9659761450   -4.6950898536
H       -0.4583644636   -6.5029336118   -4.0377893158
H       -0.2070204728   -5.1233331671   -1.7824824356
H       -0.1834442872   -5.0033143335   -6.1317548183
H       -0.4737894958    1.3331052172   -0.4195749915
H        0.2349154530    0.7183530383    1.0910149318
H        1.2907062267    1.3590334171   -0.1853659848
H       -0.2231664933   -0.3445452526   -3.9457149512
H       -0.3418339244    0.9308588086   -2.7527647094
H        1.1987816862   -3.6150722466   -0.5141163859
H       -3.7244246228    0.1892805596   -2.0566519732
25   

C       -0.3044382121   -5.3574895498   -4.0030346744
C       -0.2513703793   -4.5822795016   -2.7714652634
C        0.1189661779   -4.6320533379   -5.0876485175
C        0.0848226119   -0.9704016656   -1.8991121379
C        0.3992661791   -2.2969924972   -1.9443949881
C        0.2026457551   -3.3020727775   -2.9789424208
C        0.5154405831   -0.5232345834   -0.5869987974
C       -2.1300354500   -0.2407962057   -2.7812420613
C        0.4159805031    0.8578827017   -0.0094881590
C       -0.6179389673   -0.1331398851   -2.9454595698
N        1.0377500541   -1.5254091445    0.0726071395
N        0.9749828727   -2.6141193461   -0.7450194134
O       -2.7476999242   -0.9814680848   -3.5286022553
O       -2.7200070501    0.5372980412   -1.8396093679
S        0.5926513949   -2.9929134980   -4.6525641157
H       -0.6440418697   -6.3862351760   -4.0573422801
H       -0.5503452104   -4.9692223164   -1.8041725432
H        0.1562444692   -5.0120370332   -6.1020630577
H       -0.4937710353    0.9355529557    0.5919523676
H        1.2767246087    1.0551263186    0.6357565934
H        0.3823577941    1.6120407724   -0.7984773804
H       -0.3356115091   -0.4486217135   -3.9515733370
H       -0.3285500615    0.9155520973   -2.8494245780
H        1.3346421265   -3.5381378489   -0.5166785288
H       -3.6682130980    0.3297545516   -1.8664796426
25   

C       -0.3666271568   -5.3332134217   -4.0360281716
C       -0.3988747940   -4.5441299632   -2.8122416863
C        0.3017807934   -4.6905659166   -5.0482227428
C        0.0442351327   -1.0231702264   -1.8738628527
C        0.4144036417   -2.3321734013   -1.9144152642
C        0.2384271745   -3.3374744119   -2.9568747610
C        0.4981174782   -0.5410580320   -0.5831581910
C       -2.2094499741   -0.3009715700   -2.6522751116
C        0.3599003290    0.8444067414   -0.0254380913
C       -0.7104556412   -0.2429241362   -2.9260148636
N        1.0866597171   -1.5119776392    0.0688421288
N        1.0454399433   -2.6131347011   -0.7350036433
O       -2.8800777765   -1.1284533187   -3.2475364548
O       -2.7308511255    0.6079429406   -1.7910995744
S        0.9110374363   -3.1131745276   -4.5547314065
H       -0.8225744145   -6.3122907295   -4.1366461892
H       -0.8805360423   -4.8651267555   -1.8955818469
H        0.4398483754   -5.0960541365   -6.0438962424
H       -0.5009394303    0.8816669057    0.6474234247
H        1.2562076266    1.1081260662    0.5429864358
H        0.2146792742    1.5752146661   -0.8239242214
H       -0.5081860288   -0.6448826597   -3.9216248067
H       -0.3882330078    0.8010015472   -2.9264550525
H        1.4479186028   -3.5204063463   -0.5098521822
H       -3.6804694484    0.4141572967   -1.7298289701
25   

C       -1.1496602720   -5.0914346038   -4.3680675362
C       -1.3354992763   -4.2762714972   -3.1753014419
C        0.0960862086   -4.9239194930   -4.9210640321
C       -0.0759886399   -1.2525069425   -1.7352220934
C       -0.0727358126   -2.6112370407   -1.7546113880
C       -0.2230728286   -3.5303678158   -2.8823393920
C        0.1252608742   -0.8923095066   -0.3453425730
C       -1.7335301159    0.0929158496   -3.0152873641
C        0.2243157860    0.4883608263    0.2315478958
C       -0.2705112757   -0.3242645798   -2.9108819142
N        0.2315339378   -1.9773493772    0.3801405507
N        0.1138398266   -3.0380588155   -0.4703214631
O       -2.4886323410   -0.5885487595   -3.6895742864
O       -2.1137878800    1.2300005732   -2.3815461180
S        1.0835100374   -3.7768030735   -4.0191036225
H       -1.9108126128   -5.7485021529   -4.7748781028
H       -2.2496833973   -4.2455175233   -2.5929924016
H        0.4410089662   -5.4311327964   -5.8147148544
H       -0.7387969248    0.7730120454    0.6633217916
H        0.9787230399    0.5077482206    1.0230797814
H        0.4939558599    1.2146018945   -0.5384856759
H        0.0325385083   -0.8167487845   -3.8388570594
H        0.3509369511    0.5671116013   -2.7950446510
H        0.1706952480   -4.0181420504   -0.2013911227
H       -3.0662668541    1.3287456417   -2.5434408792
25   

C       -1.1351710754   -4.8979235654   -4.4607101210
C       -1.3161877527   -4.0350757437   -3.3013388658
C        0.1875237902   -5.0333844921   -4.8047376799
C       -0.0451086540   -1.2805773869   -1.7030233860
C        0.0409160556   -2.6362598419   -1.6980115104
C       -0.1225733426   -3.5723850782   -2.8116490179
C        0.1574017850   -0.8807025772   -0.3249483337
C       -1.8032919062   -0.0160058800   -2.9336710831
C        0.1901102242    0.5165397894    0.2182838121
C       -0.3256905756   -0.3923135747   -2.8916651354
N        0.3297991861   -1.9430874550    0.4207647069
N        0.2551344671   -3.0261930215   -0.4066000802
O       -2.6021107376   -0.8308226558   -3.3677399591
O       -2.1532264148    1.2217708300   -2.5046171009
S        1.2566299066   -4.1259307267   -3.7376274757
H       -1.9535407969   -5.3686158451   -4.9948262703
H       -2.2801947739   -3.7605041262   -2.8860846202
H        0.5435112993   -5.6254901157   -5.6399091119
H       -0.7818145137    0.7612521530    0.6547061102
H        0.9508417849    0.5940695492    1.0001380274
H        0.4135871991    1.2365234418   -0.5722934796
H       -0.0584163351   -0.9047452785   -3.8200159799
H        0.2789902566    0.5162720154   -2.8328914055
H        0.3472460516   -3.9974963815   -0.1162345660
H       -3.1193887046    1.2781771620   -2.5862824539
25   

C       -1.1343822557   -4.8317051207   -4.5417044921
C       -1.2992312958   -3.8926096033   -3.4408312655
C        0.1730962248   -5.2194091493   -4.7014495457
C       -0.0618985829   -1.3166614958   -1.7337476515
C        0.0752670196   -2.6694887443   -1.7163071596
C       -0.1133948575   -3.6243547523   -2.8065492069
C        0.1766908328   -0.8916983509   -0.3687324925
C       -1.8781302928   -0.0460309140   -2.8885903589
C        0.1822192794    0.5130818887    0.1558054810
C       -0.4058073211   -0.4448049797   -2.9192281350
N        0.4138759932   -1.9368248873    0.3830359889
N        0.3474586871   -3.0328222863   -0.4275135627
O       -2.7070214764   -0.8403960341   -3.3033014830
O       -2.1901815782    1.1909314488   -2.4295712866
S        1.2461820053   -4.4653622591   -3.5249730045
H       -1.9515073207   -5.1751413616   -5.1669870421
H       -2.2441058321   -3.4370705203   -3.1634265900
H        0.5167298323   -5.9079007092   -5.4648356507
H       -0.7840300268    0.7344172128    0.6166282748
H        0.9620641105    0.6242321342    0.9144157102
H        0.3611535121    1.2285909744   -0.6500817232
H       -0.1958034223   -0.9743973242   -3.8526795782
H        0.2123391518    0.4566405609   -2.9104867658
H        0.4774553848   -3.9966712901   -0.1269055925
H       -3.1577920247    1.2644002877   -2.4723582664
25   

C       -1.1225772730   -4.7940505392   -4.6099132149
C       -1.2790701893   -3.7806875948   -3.5758501927
C        0.1244652139   -5.3670655972   -4.5902207726
C       -0.1239103656   -1.3233176981   -1.7403978174
C        0.0481214302   -2.6742984023   -1.7347131845
C       -0.1481538487   -3.6357111447   -2.8124791643
C        0.1638477149   -0.8973718894   -0.3844280181
C       -1.9811385247   -0.0210042003   -2.8096162155
C        0.1629501686    0.5048554988    0.1473559449
C       -0.5172073952   -0.4417266304   -2.9046852811
N        0.4624543076   -1.9377783184    0.3511907914
N        0.3895953636   -3.0320217950   -0.4603460692
O       -2.8322390022   -0.7623914373   -3.2735690361
O       -2.2607600436    1.1830916833   -2.2532614310
S        1.1479569273   -4.7021112598   -3.3202999035
H       -1.9024467235   -5.0582143863   -5.3161057495
H       -2.1834805442   -3.2013822540   -3.4280404162
H        0.4523400175   -6.1396673223   -5.2761463617
H       -0.7907780818    0.7071561023    0.6417711784
H        0.9662668864    0.6263110907    0.8794516800
H        0.3020749071    1.2273830551   -0.6601166432
H       -0.3522036100   -0.9661829530   -3.8498955258
H        0.1108285362    0.4528062537   -2.9192722302
H        0.5592042684   -3.9926925743   -0.1694459424
H       -3.2273661217    1.2775049852   -2.2734474915
25   

C       -1.0723116085   -4.7318824944   -4.7064211755
C       -1.2054071609   -3.6606339344   -3.7292475963
C        0.0728013629   -5.4638435233   -4.5203988072
C       -0.1526571160   -1.3220138021   -1.7397712424
C        0.0384130219   -2.6726883389   -1.7614108733
C       -0.1577160718   -3.6249228291   -2.8423469620
C        0.1879410577   -0.9110740400   -0.3904790218
C       -2.0466321056   -0.0059064756   -2.7392047757
C        0.1942563275    0.4821608260    0.1651636753
C       -0.5814443978   -0.4134356123   -2.8718837001
N        0.5384237477   -1.9557012830    0.3146764537
N        0.4490549507   -3.0383987112   -0.5094492126
O       -2.8916063989   -0.6748863188   -3.3113513453
O       -2.3324620861    1.1175947301   -2.0369450161
S        1.0243376134   -4.8811960863   -3.1584293583
H       -1.7967474845   -4.9242134680   -5.4906009443
H       -2.0432581533   -2.9748000016   -3.7035833874
H        0.3670712276   -6.3052047072   -5.1372109944
H       -0.7458884358    0.6699139574    0.6903337886
H        1.0179803071    0.5968571034    0.8753726431
H        0.3054610484    1.2196378491   -0.6329454245
H       -0.4247458670   -0.9063490189   -3.8350850653
H        0.0361812713    0.4883268513   -2.8733845791
H        0.6531441976   -3.9989552891   -0.2412189882
H       -3.2986421559    1.2162436517   -2.0575082480
25   

C       -0.9745572298   -4.6716586847   -4.7682108107
C       -1.0817127396   -3.5435138411   -3.8542202723
C        0.0271188676   -5.5357286949   -4.4092336920
C       -0.1920525505   -1.2888785177   -1.7253308407
C        0.0185843682   -2.6392502899   -1.7586590364
C       -0.1543661962   -3.5911959605   -2.8407439155
C        0.1744101181   -0.8782507198   -0.3817116355
C       -2.1211245847   -0.0185835406   -2.7260666037
C        0.1684068271    0.5098870239    0.1877939532
C       -0.6382025078   -0.3639564650   -2.8387956025
N        0.5672364591   -1.9178104920    0.3069948484
N        0.4794530155   -2.9966102015   -0.5210043851
O       -2.9136168399   -0.6147092935   -3.4369926554
O       -2.4782194179    0.9815360298   -1.8838915810
S        0.8702058162   -5.0100136487   -2.9568834712
H       -1.6170726162   -4.8098297850   -5.6312598160
H       -1.8279158805   -2.7673801201   -3.9614014720
H        0.2777768887   -6.4403441981   -4.9512672863
H       -0.7646048314    0.6763946876    0.7324747216
H        1.0034019126    0.6314988081    0.8835655079
H        0.2520821205    1.2582780345   -0.6032058000
H       -0.4346926282   -0.8138722296   -3.8138171958
H       -0.0615632693    0.5634141798   -2.7991608135
H        0.7176500549   -3.9524426597   -0.2643199698
H       -3.4449862912    1.0570419728   -1.9405657485
25   

C       -0.8422330028   -4.6508872780   -4.8157281885
C       -0.8958443908   -3.4759254482   -3.9580940878
C       -0.0297228127   -5.6278038373   -4.3052028035
C       -0.1907411804   -1.2908839000   -1.7053932704
C        0.0450753445   -2.6406706168   -1.7512960624
C       -0.1159560001   -3.5971241929   -2.8306256015
C        0.2407863179   -0.8700548373   -0.3835184778
C       -2.1895977750   -0.1630334434   -2.7660443521
C        0.2087421841    0.5107773896    0.2034458100
C       -0.6734352886   -0.3495643283   -2.7912092653
N        0.6793049790   -1.9004867151    0.2885086493
N        0.5616383153   -2.9819931210   -0.5301132305
O       -2.8462952209   -0.6203108148   -3.6872131195
O       -2.7267386717    0.5572744244   -1.7513395711
S        0.6943266646   -5.1524908094   -2.7749291295
H       -1.3890690295   -4.7402916239   -5.7483532856
H       -1.5110920557   -2.6194267132   -4.1929937889
H        0.1502969831   -6.5849595669   -4.7810331810
H       -0.4998010923    1.1488730132   -0.3285640409
H       -0.0811874824    0.4597887055    1.2566489741
H        1.2046149586    0.9571844767    0.1405108126
H       -0.3538879115   -0.7068136106   -3.7732450296
H       -0.2078542672    0.6300534253   -2.6567328366
H        0.8274511583   -3.9325222460   -0.2810393443
H       -3.6868595212    0.5679859492   -1.8968463377
25   

C       -0.7379675201   -4.6495717178   -4.9994702248
C       -0.6672548137   -3.4507610333   -4.1768335302
C       -0.2095911955   -5.7429932202   -4.3684322034
C       -0.0999802338   -1.3715078479   -1.7886447262
C        0.1230669007   -2.7236446444   -1.8674474981
C       -0.0799948880   -3.6698881101   -2.9498637425
C        0.3598183681   -0.9790599559   -0.4680919628
C       -2.1454085072   -0.3540993721   -2.8607593663
C        0.3126396195    0.3860267204    0.1536625588
C       -0.6198773244   -0.3949403387   -2.8247204618
N        0.8179736095   -2.0215477427    0.1697587455
N        0.6795215568   -3.0844241560   -0.6690756187
O       -2.7125330560   -0.7371742384   -3.8711337746
O       -2.7934239154    0.1606752034   -1.7870457960
S        0.3894535653   -5.3516370482   -2.7632071763
H       -1.1673780051   -4.6708505651   -5.9954369852
H       -1.0634961884   -2.5061913009   -4.5186815857
H       -0.1644871512   -6.7366563335   -4.7991949736
H       -0.4966458986    0.9813934967   -0.2757783342
H        0.1530409041    0.2990108337    1.2321644184
H        1.2629846678    0.8988048772   -0.0167848766
H       -0.2192125899   -0.6357696184   -3.8116258853
H       -0.2608184871    0.6111191215   -2.5951588242
H        0.9538893568   -4.0390887216   -0.4465645058
H       -3.7431054684    0.0986853734   -1.9798296861
25   

C       -0.7955675230   -4.5213381313   -4.9197204829
C       -0.5091709097   -3.3103863948   -4.1644477700
C       -0.6848605737   -5.6495123499   -4.1515997242
C       -0.0479699670   -1.2428991847   -1.7475815602
C        0.1362986170   -2.5998858606   -1.8109688338
C       -0.1963372879   -3.5602435353   -2.8467708235
C        0.4673727979   -0.8443748552   -0.4501372180
C       -2.1500956815   -0.5678184173   -2.9891130254
C        0.4613550309    0.5284435755    0.1554460043
C       -0.6628525202   -0.3019476575   -2.7653338296
N        0.9190540021   -1.8905521997    0.1879872995
N        0.7181172877   -2.9630919081   -0.6264854747
O       -2.5488251165   -0.6499938392   -4.1398624977
O       -2.9564077104   -0.6853572321   -1.9052217550
S       -0.2327103272   -5.2787351269   -2.4934267885
H       -1.0671808911   -4.5250446624   -5.9699775894
H       -0.5408930745   -2.3301566290   -4.6195563388
H       -0.8561648298   -6.6564612343   -4.5144821468
H       -0.4351692175    1.0765661191   -0.1447740517
H        0.4804446575    0.4564778070    1.2468576237
H        1.3458113275    1.0795326416   -0.1748857345
H       -0.1210022113   -0.3749202540   -3.7109919359
H       -0.5571255033    0.7323102125   -2.4316769983
H        0.9632127793   -3.9235456202   -0.3951236820
H       -3.8465770514   -0.8808096147   -2.2392043703
25   

C       -0.7846915075   -4.4262071087   -4.9211178504
C       -0.3473617141   -3.2566310257   -4.1727969252
C       -0.9794374931   -5.5156816494   -4.1120385798
C       -0.0201801595   -1.2073627017   -1.7206964764
C        0.1613939949   -2.5610809937   -1.7944851607
C       -0.2312951121   -3.5034631077   -2.8252391934
C        0.5416692820   -0.8180559814   -0.4401670674
C       -2.1427961166   -0.7532462535   -3.0496925281
C        0.6210861059    0.5615537013    0.1438158518
C       -0.7268448085   -0.2931125572   -2.7039907682
N        1.0270487266   -1.8679098734    0.1693383981
N        0.8019533340   -2.9364345373   -0.6457055590
O       -2.4839676481   -0.7058200136   -4.2208123768
O       -2.9498209306   -1.1888537377   -2.0505850964
S       -0.6409137237   -5.1594570859   -2.4221238179
H       -0.9409420848   -4.4300968770   -5.9946031258
H       -0.1373757909   -2.3013922300   -4.6382007162
H       -1.3067919447   -6.4873935741   -4.4635748991
H       -0.2791772241    0.7607539236    0.7315402843
H        1.4910053607    0.6393280144    0.8023506447
H        0.7056069344    1.3124684969   -0.6451446570
H       -0.1329034217   -0.2155723198   -3.6181559081
H       -0.8062755127    0.7126350516   -2.2864200095
H        1.0612646655   -3.8979178504   -0.4350919903
H       -3.7786658771   -1.4745813968   -2.4666962364
25   

C       -0.7131897509   -4.4174355782   -4.9412008254
C       -0.1882716961   -3.2798390270   -4.1995794541
C       -1.1321747179   -5.4272835159   -4.1123042114
C       -0.0519759593   -1.1804795004   -1.7495017769
C        0.1718113997   -2.5252711840   -1.8187964623
C       -0.2252845715   -3.4783871825   -2.8413467857
C        0.5495130133   -0.7630833305   -0.4966528925
C       -2.1869768208   -0.8869871393   -3.1139539361
C        0.6012323519    0.6229474237    0.0744253258
C       -0.8247766385   -0.3123968169   -2.7248564158
N        1.1047826497   -1.7904248264    0.0935591770
N        0.8860729557   -2.8729405894   -0.7059712785
O       -2.5059849507   -0.8394159948   -4.2913360819
O       -2.9734631114   -1.4185780478   -2.1453547047
S       -0.9040541626   -5.0346939348   -2.4109173784
H       -0.7717272780   -4.4555339650   -6.0237318619
H        0.1794621668   -2.3738349243   -4.6673739300
H       -1.5595162866   -6.3621107112   -4.4564213354
H       -0.2561630560    0.7770404642    0.7352071183
H        1.5173160890    0.7523815101    0.6578888313
H        0.5777403631    1.3714272780   -0.7209938298
H       -0.2245041722   -0.1662397639   -3.6267097043
H       -0.9998557192    0.6722966964   -2.2862527374
H        1.1946083809   -3.8223029793   -0.5069567903
H       -3.7605388890   -1.7710794880   -2.5902631531
25   

C       -0.6553781816   -4.4244846853   -4.9194951984
C       -0.0500986190   -3.3393005427   -4.1603902801
C       -1.2934524403   -5.3304382539   -4.1094876561
C       -0.0851654271   -1.1885578774   -1.7047054718
C        0.1652545316   -2.5261101571   -1.7853742145
C       -0.2430742693   -3.4791156316   -2.8092347801
C        0.5648900424   -0.7592373485   -0.4808649361
C       -2.2339842608   -0.9823965987   -3.0677945047
C        0.6093487109    0.6273008928    0.0891738602
C       -0.9081783866   -0.3418116515   -2.6571581942
N        1.1787203665   -1.7729836572    0.0753113528
N        0.9510404605   -2.8592106317   -0.7174584571
O       -2.5338993242   -0.9569698919   -4.2508775387
O       -3.0145796437   -1.5395437300   -2.1089839073
S       -1.1802111809   -4.9024618420   -2.4046294485
H       -0.6142867163   -4.4996447274   -6.0008592817
H        0.4752409740   -2.5034980673   -4.6086140415
H       -1.8143753865   -6.2101547974   -4.4695381047
H       -0.2069493472    0.7534151496    0.8055225025
H        1.5573429160    0.7858806324    0.6112301904
H        0.5089749904    1.3747534651   -0.7012448480
H       -0.3163997175   -0.1401646431   -3.5541429261
H       -1.1386295412    0.6192349051   -2.1921334396
H        1.2981774956   -3.7998133099   -0.5416483240
H       -3.7746139545   -1.9324514558   -2.5668443984
25   

C        0.3447733590   -4.9054894005   -4.5164016598
C        0.7839158817   -3.9109128008   -3.5472811737
C       -0.9431416567   -5.3199935472   -4.2835836209
C       -0.0651984677   -1.2857775687   -1.6174283719
C       -0.0743647676   -2.6433029655   -1.5445381946
C       -0.1865183346   -3.6273783162   -2.6204938810
C        0.0865233734   -0.8327896290   -0.2483334640
C       -1.6643989156   -0.0317085723   -3.0600368213
C        0.1711981915    0.5830710465    0.2386330906
C       -0.2078728219   -0.4374977668   -2.8597992519
N        0.1604221722   -1.8664578507    0.5519808190
N        0.0607877156   -2.9818403793   -0.2278357444
O       -2.3550353303   -0.6922173795   -3.8185124007
O       -2.1049503878    1.0804306249   -2.4207790763
S       -1.6624047406   -4.5246226429   -2.8858655048
H        0.9612375894   -5.2699503006   -5.3310586938
H        1.7591734898   -3.4374117919   -3.5569891365
H       -1.4699912717   -6.0492909794   -4.8880690806
H       -0.8070648500    0.8989607522    0.6106839011
H        0.8927421082    0.6529625316    1.0574352217
H        0.4754904687    1.2555024489   -0.5664621691
H        0.1381775950   -0.9887007334   -3.7383630559
H        0.4052903995    0.4628720086   -2.7745356181
H        0.0760538071   -3.9415366747    0.1113842952
H       -3.0442433256    1.1738077515   -2.6494814727
25   

C        0.4226286288   -5.0569382187   -4.4138530576
C        0.8776301182   -4.0990863202   -3.4153908813
C       -0.9374603805   -5.2395937728   -4.3719159555
C       -0.0961126040   -1.2652180210   -1.6427976219
C       -0.0346463348   -2.6213253610   -1.5858038933
C       -0.1577080707   -3.6046496031   -2.6641894282
C        0.0887820094   -0.8197982005   -0.2754141483
C       -1.7898164506   -0.0315027115   -2.9977240726
C        0.1312571040    0.5939664271    0.2226950252
C       -0.3189923149   -0.4150540540   -2.8717292363
N        0.2410035289   -1.8572824093    0.5092853115
N        0.1620425807   -2.9684091474   -0.2791674586
O       -2.5100273573   -0.7078275255   -3.7135561345
O       -2.2119385815    1.0801792634   -2.3454337106
S       -1.7084757157   -4.2621263553   -3.1254285048
H        1.0810877881   -5.5627550762   -5.1118192595
H        1.9115671847   -3.8017261458   -3.2808206251
H       -1.4869136646   -5.9035607550   -5.0292739956
H       -0.8451726065    0.8649678414    0.6329179878
H        0.8787771060    0.6875625598    1.0154104468
H        0.3772974604    1.2851225323   -0.5865421247
H       -0.0083534604   -0.9583514626   -3.7686341448
H        0.2837742114    0.4945712018   -2.8136901262
H        0.2253347763   -3.9300751073    0.0486606423
H       -3.1625636333    1.1600177104   -2.5277070006
25   

C        0.4695758047   -5.1489299417   -4.3321028261
C        0.9379915474   -4.2419762067   -3.2931324873
C       -0.8892583679   -5.0711615823   -4.5110068098
C       -0.0613180994   -1.1993717430   -1.6508968188
C        0.0518342948   -2.5536687109   -1.6459483201
C       -0.0855882678   -3.5146572122   -2.7404103529
C        0.1522351585   -0.7975989448   -0.2740813943
C       -1.8047702410    0.1400993765   -2.8445489453
C        0.1730414886    0.5989345847    0.2715802987
C       -0.3463744311   -0.3079349200   -2.8373822236
N        0.3598179776   -1.8566619022    0.4680338687
N        0.2913629935   -2.9412066502   -0.3573677540
O       -2.6261659395   -0.5546459610   -3.4197510677
O       -2.1072620442    1.3216574529   -2.2518270707
S       -1.6426438955   -3.8998472989   -3.4323913240
H        1.1187285684   -5.8081997747   -4.8983208402
H        1.9743068176   -4.1482941624   -2.9884063941
H       -1.4471140643   -5.6564947742   -5.2328719250
H       -0.7947015897    0.8275161714    0.7257711829
H        0.9464735172    0.6873342284    1.0396823190
H        0.3704171461    1.3236196006   -0.5217111266
H       -0.1280553201   -0.8376227057   -3.7689297335
H        0.2989719752    0.5735620383   -2.8038286325
H        0.3811764910   -3.9118507911   -0.0642899825
H       -3.0669049489    1.4372700889   -2.3478145330
25   

C        0.4826297209   -5.3084153001   -4.2436084950
C        0.9177361286   -4.4135037589   -3.1801207128
C       -0.8154493836   -5.0701244286   -4.6198518749
C       -0.1436386708   -1.2049341582   -1.7325191628
C        0.0481074229   -2.5516228068   -1.7314263656
C       -0.0657976036   -3.5310813951   -2.8070151948
C        0.1038521212   -0.7878724132   -0.3656102823
C       -1.9782994686    0.0967536520   -2.8384633396
C        0.0757556553    0.6098619861    0.1768723692
C       -0.5127602191   -0.3236119919   -2.9041489809
N        0.4021983900   -1.8306970714    0.3681815379
N        0.3619426056   -2.9196159270   -0.4526763577
O       -2.8173331282   -0.6276821889   -3.3475467931
O       -2.2703644814    1.2877081338   -2.2597812442
S       -1.5489598600   -3.7569852149   -3.7037401660
H        1.1108206896   -6.0741203399   -4.6860461462
H        1.9055950671   -4.4382885320   -2.7341151356
H       -1.3407399083   -5.6191274058   -5.3928902854
H       -0.8913093548    0.7983984824    0.6503576285
H        0.8606691876    0.7341068678    0.9282251857
H        0.2258102597    1.3397383254   -0.6220455992
H       -0.3303465273   -0.8491821426   -3.8455028596
H        0.1153324331    0.5709758535   -2.9057366509
H        0.5116669522   -3.8827989275   -0.1599998823
H       -3.2358912143    1.3835324152   -2.3059642795
25   

C        0.4289959641   -5.3835418380   -4.1580137926
C        0.8319369422   -4.5309443772   -3.0482790968
C       -0.7595065509   -4.9813987149   -4.7124255586
C       -0.1695538265   -1.1865964554   -1.7345985402
C        0.0471562907   -2.5318163785   -1.7475490235
C       -0.0642518194   -3.5151654338   -2.8149111295
C        0.1262529021   -0.7696866640   -0.3766757371
C       -2.0532920823    0.1034440363   -2.7759922752
C        0.0955240097    0.6245175489    0.1755289099
C       -0.5823435560   -0.2899309400   -2.8809022481
N        0.4781597548   -1.8076754169    0.3389812054
N        0.4271625913   -2.8934135373   -0.4843544963
O       -2.8904913429   -0.6200539290   -3.2892553096
O       -2.3530490195    1.2734382528   -2.1598062128
S       -1.4246197594   -3.5612485323   -3.9121438484
H        1.0016391365   -6.2365736486   -4.5060282391
H        1.7416942733   -4.6783018114   -2.4777235896
H       -1.2438936281   -5.4721109682   -5.5487784751
H       -0.8577533113    0.7956089291    0.6823542953
H        0.9034266399    0.7563375528    0.9008083095
H        0.2079131827    1.3620689800   -0.6224160807
H       -0.4065284058   -0.7882679231   -3.8376707455
H        0.0281437137    0.6166857482   -2.8774919619
H        0.6075951391   -3.8533741472   -0.1993935347
H       -3.3206601922    1.3547109543   -2.1856788695
25   

C        0.3499866460   -5.5242430179   -4.0281322396
C        0.7156299788   -4.7020681560   -2.8833153481
C       -0.6915301688   -4.9853380668   -4.7381248357
C       -0.1709561577   -1.2278034631   -1.7090057374
C        0.0586208840   -2.5741769656   -1.7235764376
C       -0.0622613307   -3.5717850708   -2.7735952807
C        0.1842475625   -0.7975560267   -0.3684258016
C       -2.1185000689   -0.0141092705   -2.7294781798
C        0.1622641991    0.5973243625    0.1839635492
C       -0.6276455493   -0.3233464549   -2.8341771248
N        0.5869659821   -1.8244130912    0.3348427573
N        0.5128497887   -2.9150700743   -0.4784448804
O       -2.8989673366   -0.6568446908   -3.4118701808
O       -2.4966877768    1.0093055155   -1.9242452701
S       -1.2585428709   -3.4707282767   -4.0443674109
H        0.8447475665   -6.4533074955   -4.2903570040
H        1.5234341356   -4.9541374422   -2.2065938164
H       -1.1244969103   -5.4299255592   -5.6268316304
H       -0.7720492651    0.7595398356    0.7276704257
H        0.9966045445    0.7374131096    0.8770735248
H        0.2362415997    1.3368637844   -0.6162695751
H       -0.4109474632   -0.7762416168   -3.8044643941
H       -0.0727456497    0.6172871527   -2.8000552780
H        0.7255568415   -3.8681220597   -0.1939178241
H       -3.4651589735    1.0568524887   -1.9799316207
25   

C        0.2483370926   -5.5580699657   -3.9438294651
C        0.5597996652   -4.7613142458   -2.7656147996
C       -0.5826573492   -4.8959809451   -4.8088590354
C       -0.1655701807   -1.1641784972   -1.7355226334
C        0.0805820470   -2.5119024531   -1.7486288515
C       -0.0484109165   -3.5247645405   -2.7823181867
C        0.2565600328   -0.7126325871   -0.4206926731
C       -2.1823134945   -0.0900729575   -2.8010807545
C        0.2196121759    0.6811457035    0.1344916823
C       -0.6641901876   -0.2516739259   -2.8384338197
N        0.6918598261   -1.7269031781    0.2787659927
N        0.5803054097   -2.8282187828   -0.5133892106
O       -2.8507642276   -0.6446098414   -3.6575469539
O       -2.7094580996    0.7228159328   -1.8522773964
S       -1.0115589043   -3.2936300283   -4.2235161091
H        0.6313466251   -6.5577760194   -4.1187603985
H        1.2142559137   -5.1135146149   -1.9778608944
H       -0.9409518417   -5.3005997398   -5.7484438686
H       -0.4890078140    1.3051806516   -0.4138240500
H       -0.0727719325    0.6537295494    1.1878842234
H        1.2145426485    1.1284965994    0.0636495086
H       -0.3516751402   -0.6230416063   -3.8168747324
H       -0.2111718628    0.7367049136   -2.7279365768
H        0.8162823175   -3.7734648874   -0.2229346218
H       -3.6720840997    0.7036475527   -1.9782102721
25   

C       -0.0648613487   -5.5860442870   -3.8258174245
C        0.2704505933   -4.7888433556   -2.6543592828
C       -0.6406840665   -4.8328146718   -4.8148301352
C       -0.1093276823   -1.0691088954   -1.8209780684
C        0.1480848970   -2.4163602019   -1.8128005747
C       -0.0644025025   -3.4598964839   -2.8006841530
C        0.3577095723   -0.5803295270   -0.5365142885
C       -2.2259558006   -0.2022179301   -2.9028542303
C        0.2743363532    0.8205817125   -0.0054736892
C       -0.6986639362   -0.1858312140   -2.9045402964
N        0.8473959355   -1.5685533662    0.1632241134
N        0.7210570988   -2.6890629221   -0.5991937953
O       -2.8016593291   -0.3416791524   -3.9696038111
O       -2.8701065214   -0.0368769265   -1.7201176389
S       -0.7934678379   -3.1411661547   -4.3581899463
H        0.1194974341   -6.6519432277   -3.9072173299
H        0.7346318226   -5.2142253421   -1.7734963011
H       -0.9688621648   -5.2219427235   -5.7718525396
H       -0.5742722573    1.3505964461   -0.4449387012
H        0.1537450577    0.8009598745    1.0814274267
H        1.1952842643    1.3587924110   -0.2445714782
H       -0.3208574532   -0.4825924254   -3.8851661684
H       -0.3738949285    0.8463313923   -2.7551827684
H        1.0139780329   -3.6171752864   -0.3065507930
H       -3.8199847148   -0.0928823107   -1.9117350674
