21   
Generated by ForceBalance from scan.xyz: Frame 1 of 11
C       -4.5323792452    3.4817697771   -2.5801488709
C       -4.1503312951    2.9083643910   -4.6137657471
C       -2.9218123767    2.1310504059   -2.8442624663
C       -0.7626281115   -0.6474813871   -1.9228290515
C       -0.2535201862    0.4716575345   -0.9983658126
C       -1.4926618567    0.1167391503   -3.0349518692
C       -1.3939150472    1.5017371840   -1.0090074404
N       -4.8644514232    3.8089052310   -3.8277225852
N       -3.2207071993    3.3297603394   -2.2809400875
N       -3.3857909761    1.9146050535   -4.1519849785
N       -2.0183323764    1.2942431887   -2.3256194224
H       -5.2134174869    3.7848647517   -1.7737499209
H       -4.2764986809    2.9816558235   -5.6921880122
H        0.0377902759   -1.2806357037   -2.3136347011
H       -1.4699161994   -1.2889651879   -1.3856727662
H       -0.0207635296    0.1256048018    0.0117260861
H        0.6540921519    0.9187451692   -1.4181171531
H       -0.8093033115    0.4345297300   -3.8321814994
H       -2.3045249349   -0.4465108371   -3.4968252967
H       -2.1293581296    1.3132127395   -0.2172016680
H       -1.0472504166    2.5309975988   -0.9022278828
21   
Generated by ForceBalance from scan.xyz: Frame 2 of 11
C       -4.5266269166    3.5414523700   -2.5401546840
C       -4.1698911852    2.8635908150   -4.5957303207
C       -2.9194728693    2.1195988093   -2.8516864756
C       -0.7447539729   -0.6532105959   -1.9402083778
C       -0.2551067594    0.4568291006   -0.9948560832
C       -1.4706851570    0.1203599169   -3.0487562821
C       -1.4049646281    1.4763203470   -1.0035850907
N       -4.8673261243    3.7456670555   -3.8216362136
N       -3.2562978822    3.2684284817   -2.1995774569
N       -3.3631967692    1.9022907978   -4.1410311204
N       -2.0090607985    1.2856567309   -2.3314676432
H       -5.1646357655    4.0021192845   -1.7789817510
H       -4.3159579069    2.9219162806   -5.6731425298
H        0.0643524265   -1.2750344552   -2.3314060258
H       -1.4524635503   -1.3073082725   -1.4190089222
H       -0.0300239260    0.0982726193    0.0126564586
H        0.6528875651    0.9180167517   -1.3983603721
H       -0.7831618142    0.4498983689   -3.8379979114
H       -2.2747757735   -0.4438769855   -3.5235561966
H       -2.1480995681    1.2686146015   -0.2237995792
H       -1.0691345420    2.5066910122   -0.8743718468
21   
Generated by ForceBalance from scan.xyz: Frame 3 of 11
C       -4.5152339739    3.6243707334   -2.5470687836
C       -4.1978896386    2.8255662883   -4.5869029551
C       -2.9291480822    2.1138881110   -2.8472255347
C       -0.7261990588   -0.6449053164   -1.9539960104
C       -0.2609505775    0.4567643876   -0.9868212766
C       -1.4531707054    0.1352360719   -3.0574488663
C       -1.4248222860    1.4600074553   -0.9919770270
N       -4.8766469527    3.7260938513   -3.8361395159
N       -3.3093290959    3.2147088246   -2.1425970110
N       -3.3554450300    1.8987024115   -4.1321830746
N       -2.0090664977    1.2852546093   -2.3303844920
H       -5.1106066245    4.1951005318   -1.8306629813
H       -4.3827750599    2.8371230642   -5.6603984659
H        0.0949097841   -1.2496233545   -2.3470407243
H       -1.4294426733   -1.3165499307   -1.4493520954
H       -0.0413977337    0.0854158566    0.0172924143
H        0.6447457854    0.9365159806   -1.3735512843
H       -0.7638346033    0.4811690254   -3.8381898280
H       -2.2475717099   -0.4320605531   -3.5452135855
H       -2.1738408382    1.2285577653   -0.2246586239
H       -1.1058352424    2.4929381729   -0.8405586959
21   
Generated by ForceBalance from scan.xyz: Frame 4 of 11
C       -4.4453212095    3.7093803144   -2.5416035071
C       -4.1912271520    2.8092993133   -4.5657805482
C       -2.9120391601    2.1050893316   -2.8367398289
C       -0.6960613279   -0.6596220992   -1.9774724982
C       -0.2479520959    0.4292481361   -0.9880532007
C       -1.4322483116    0.1308176980   -3.0681489046
C       -1.4267705200    1.4137936394   -0.9770713174
N       -4.8308560287    3.7381583726   -3.8281174095
N       -3.3228901032    3.1596688655   -2.0813251514
N       -3.3247586854    1.9023987552   -4.1211539570
N       -1.9908909029    1.2703328445   -2.3270864704
H       -4.9842849942    4.3668694757   -1.8579417752
H       -4.4228761882    2.7817011399   -5.6302137019
H        0.1341579532   -1.2451246991   -2.3803852043
H       -1.3901716332   -1.3509130976   -1.4869699442
H       -0.0244657101    0.0417351052    0.0090862443
H        0.6507840231    0.9302655535   -1.3640770740
H       -0.7490394018    0.4878752590   -3.8490661140
H       -2.2261608593   -0.4354863392   -3.5586134055
H       -2.1800352572    1.1463642209   -0.2255494987
H       -1.1282033743    2.4472168938   -0.7910564366
21   
Generated by ForceBalance from scan.xyz: Frame 5 of 11
C       -4.4042086811    3.7670455629   -2.5576143023
C       -4.2190153528    2.7711989609   -4.5537323310
C       -2.9229965425    2.0892342732   -2.8315244086
C       -0.6740240852   -0.6575742530   -1.9910858094
C       -0.2521096597    0.4242343957   -0.9825796901
C       -1.4161625637    0.1357257512   -3.0758751428
C       -1.4486394580    1.3867526206   -0.9666206749
N       -4.8245591134    3.7308308798   -3.8329019951
N       -3.3760516956    3.0998557669   -2.0420063954
N       -3.3206385292    1.8932260117   -4.1182440550
N       -1.9948976724    1.2585763202   -2.3251036653
H       -4.8873984006    4.4944828588   -1.9050274631
H       -4.5010656355    2.6962663123   -5.6038250631
H        0.1690641403   -1.2228714251   -2.3961578910
H       -1.3594392768   -1.3677539651   -1.5155879316
H       -0.0290534895    0.0259580686    0.0104209874
H        0.6401704046    0.9467299857   -1.3445538823
H       -0.7341096728    0.5107271698   -3.8492496908
H       -2.1997819997   -0.4356176333   -3.5773583207
H       -2.2041156577    1.0914027600   -0.2279161053
H       -1.1727012385    2.4224924320   -0.7588210746
21   
Generated by ForceBalance from scan.xyz: Frame 6 of 11
C       -4.3467107584    3.8093078501   -2.5713491601
C       -4.2431973500    2.7327400593   -4.5348712350
C       -2.9293471375    2.0670137923   -2.8210979389
C       -0.6432056898   -0.6581898075   -2.0036918269
C       -0.2477308311    0.4166549141   -0.9770020958
C       -1.3960608864    0.1359332468   -3.0808546349
C       -1.4648189178    1.3522475867   -0.9527065266
N       -4.8095110658    3.7256712241   -3.8295342492
N       -3.4275533339    3.0341242205   -2.0050867639
N       -3.3153948508    1.8804614581   -4.1116140176
N       -1.9933342454    1.2417877883   -2.3193424783
H       -4.7683643102    4.5965333097   -1.9464620487
H       -4.5779543974    2.6121867123   -5.5651064520
H        0.2127938935   -1.2007956476   -2.4126992708
H       -1.3164233463   -1.3886617484   -1.5417176124
H       -0.0204942420    0.0079476723    0.0108116365
H        0.6345522065    0.9635885119   -1.3272617115
H       -0.7186764214    0.5291290777   -3.8490421053
H       -2.1704788286   -0.4413985321   -3.5901853330
H       -2.2200432768    1.0233727174   -0.2280046472
H       -1.2162122829    2.3897937226   -0.7202400971
21   
Generated by ForceBalance from scan.xyz: Frame 7 of 11
C       -4.2760064510    3.8519898275   -2.6010606706
C       -4.2636170045    2.7072579060   -4.5248850035
C       -2.9328991693    2.0539212283   -2.8184958539
C       -0.6185966627   -0.6519569015   -2.0140812436
C       -0.2509537783    0.4145141021   -0.9682875878
C       -1.3736365347    0.1448571872   -3.0879179413
C       -1.4845769158    1.3277990272   -0.9429671404
N       -4.7906142504    3.7344619971   -3.8360715378
N       -3.4805574802    2.9807259643   -1.9872547796
N       -3.3079534157    1.8790544982   -4.1148915811
N       -1.9926506546    1.2333429224   -2.3183391746
H       -4.6282140890    4.6930580362   -2.0035118167
H       -4.6497244249    2.5430796622   -5.5307729508
H        0.2501431533   -1.1749445309   -2.4217923150
H       -1.2842947563   -1.3995422625   -1.5689127381
H       -0.0262294412   -0.0047745101    0.0156629036
H        0.6249473688    0.9816379985   -1.3020986731
H       -0.6950852610    0.5562848909   -3.8452071701
H       -2.1363416944   -0.4359297577   -3.6110813580
H       -2.2422286891    0.9714468115   -0.2340567122
H       -1.2598164677    2.3659296127   -0.6891001580
21   
Generated by ForceBalance from scan.xyz: Frame 8 of 11
C       -4.2073349400    3.8815036640   -2.6345509441
C       -4.2964032980    2.6814805883   -4.5123483453
C       -2.9424141845    2.0432663341   -2.8160549403
C       -0.5990982947   -0.6401109781   -2.0213559985
C       -0.2602688229    0.4184410082   -0.9576946125
C       -1.3561563209    0.1578754282   -3.0931361239
C       -1.5105326085    1.3084331070   -0.9331718307
N       -4.7860797168    3.7410010267   -3.8382659343
N       -3.5450992568    2.9298836700   -1.9780417445
N       -3.3109832080    1.8788457855   -4.1189787167
N       -1.9970001509    1.2297409945   -2.3172151656
H       -4.4805660435    4.7704386311   -2.0641872992
H       -4.7333186902    2.4759965395   -5.4892333342
H        0.2825144820   -1.1432520939   -2.4264195075
H       -1.2566542752   -1.4043803690   -1.5927549454
H       -0.0379521458   -0.0103774309    0.0226889243
H        0.6085365634    1.0055624082   -1.2751073387
H       -0.6766719493    0.5867699735   -3.8394995781
H       -2.1069518600   -0.4266035634   -3.6294209818
H       -2.2702866009    0.9242964687   -0.2413386164
H       -1.3109145343    2.3464960954   -0.6583122379
21   
Generated by ForceBalance from scan.xyz: Frame 9 of 11
C       -4.1373832229    3.8995827633   -2.6617682582
C       -4.3394000141    2.6623353137   -4.4865858817
C       -2.9522882146    2.0385003014   -2.8050584359
C       -0.5842642622   -0.6260286414   -2.0262189605
C       -0.2713801746    0.4214886444   -0.9435197705
C       -1.3421830741    0.1762369705   -3.0945180855
C       -1.5358164051    1.2907708297   -0.9182712488
N       -4.7964921527    3.7508496140   -3.8215191121
N       -3.6144942374    2.8834786784   -1.9682408097
N       -3.3225244684    1.8855625498   -4.1158186887
N       -2.0011181163    1.2320168842   -2.3105172030
H       -4.3158223317    4.8306364149   -2.1189380789
H       -4.8252767515    2.4199021582   -5.4309575424
H        0.3086419667   -1.1104077127   -2.4294255027
H       -1.2346774168   -1.4059267248   -1.6152820579
H       -0.0517454618   -0.0188209738    0.0323550089
H        0.5910202597    1.0267699543   -1.2438753280
H       -0.6616947214    0.6217840281   -3.8297487775
H       -2.0830343296   -0.4089918438   -3.6437127984
H       -2.2978321741    0.8792606908   -0.2450330233
H       -1.3592450318    2.3268451128   -0.6206093557
21   
Generated by ForceBalance from scan.xyz: Frame 10 of 11
C       -4.0569639349    3.9012811463   -2.6986250235
C       -4.3848598533    2.6444713407   -4.4676216967
C       -2.9651944765    2.0301263030   -2.8052544960
C       -0.5710656300   -0.6112407531   -2.0359260617
C       -0.2859897937    0.4254309654   -0.9349585862
C       -1.3257922716    0.1953484677   -3.1030143398
C       -1.5627588858    1.2766722791   -0.9135891701
N       -4.8068815112    3.7586894347   -3.8019915970
N       -3.6907260896    2.8318657436   -1.9729162896
N       -3.3393273463    1.8881349056   -4.1253790385
N       -2.0100871320    1.2309856558   -2.3123493354
H       -4.1125202279    4.8659818507   -2.1838955293
H       -4.9179193508    2.3752021325   -5.3780842404
H        0.3333126323   -1.0783329083   -2.4339556917
H       -1.2162365086   -1.4050188899   -1.6437648618
H       -0.0733534415   -0.0261253732    0.0373008612
H        0.5721322498    1.0462391646   -1.2151556064
H       -0.6411912294    0.6616438887   -3.8211172974
H       -2.0516593459   -0.3903888274   -3.6711351897
H       -2.3265761956    0.8450489638   -0.2555428912
H       -1.4061735065    2.3116122342   -0.6005720156
21   
Generated by ForceBalance from scan.xyz: Frame 11 of 11
C       -4.0015471172    3.8827389854   -2.7537275684
C       -4.4307086164    2.6284690335   -4.4437022348
C       -2.9592706522    2.0386706541   -2.7915689733
C       -0.5585059473   -0.5988235355   -2.0392091023
C       -0.2950046150    0.4229874483   -0.9187707655
C       -1.3052619873    0.2176381068   -3.1048496315
C       -1.5794786459    1.2618499361   -0.9008237910
N       -4.8546888695    3.7712576478   -3.7700634699
N       -3.7607165636    2.7890031898   -1.9921232662
N       -3.3531819992    1.9026463360   -4.1320789273
N       -1.9997251478    1.2444905598   -2.3086956540
H       -3.8876482503    4.8707909425   -2.2882058412
H       -4.9862515905    2.3422874660   -5.3346006550
H        0.3543877625   -1.0534720617   -2.4321386884
H       -1.2025394499   -1.4030053555   -1.6670017858
H       -0.0909296322   -0.0421646593    0.0488559173
H        0.5610227237    1.0554687841   -1.1784974359
H       -0.6151333633    0.6947269076   -3.8098186276
H       -2.0252590123   -0.3618545823   -3.6862629102
H       -2.3510421333    0.8058620523   -0.2687437036
H       -1.4417189500    2.2912608806   -0.5615107519
