16   

C        5.0177051017    1.6424220438    0.1113154146
C        5.3131782803    0.5132227868    0.8127241912
C        3.3530568224    0.2730439071   -0.2439690917
C        2.0817715281   -0.3296392602   -0.7324156873
C        0.4451096002   -2.1445043826   -0.3740709250
N        3.8079575174    1.4804326344   -0.5366910435
N        4.2692637779   -0.3768006414    0.6013424770
N        1.6820491508   -1.4600941398   -0.0278889350
O        1.3957441000    0.1068091168   -1.6496943228
H        5.6367868918    2.5311019705    0.0627097127
H        6.2073990478    0.3591012315    1.4057808244
H        0.2794412125   -2.9913625795    0.2987795523
H        0.4957279563   -2.5223599368   -1.4007407993
H       -0.4054921231   -1.4596901389   -0.2882784222
H        4.2179609115   -1.3416478401    0.9116910832
H        2.1612818684   -1.6928572758    0.8304637022
16   

C        4.9819847762    1.6582723777    0.1900259582
C        5.3408250047    0.4817161452    0.7760466099
C        3.3945584653    0.2445907742   -0.3003654320
C        2.1386443816   -0.3764598304   -0.8111455777
C        0.4124495389   -2.0753615590   -0.3369015601
N        3.7759467857    1.4996846652   -0.4669464992
N        4.3434076677   -0.4367302984    0.4787233249
N        1.6634747682   -1.4061600230   -0.0130035088
O        1.5075943713   -0.0007109036   -1.7923506342
H        5.5537705114    2.5785504434    0.2292585954
H        6.2459488753    0.3164010639    1.3492473742
H        0.1896060665   -2.8436149267    0.4097635468
H        0.4830966198   -2.5565260779   -1.3181411073
H       -0.4119268971   -1.3542780469   -0.3523726464
H        4.3373402823   -1.4305526161    0.6884542202
H        2.0905569893   -1.5442213947    0.8935914894
16   

C        4.9444429328    1.6602544496    0.2755858799
C        5.3792668116    0.4579448340    0.7484670046
C        3.4457440049    0.2042939721   -0.3405223938
C        2.2076256887   -0.4436321883   -0.8725694117
C        0.3910591888   -2.0164184909   -0.3204577157
N        3.7409106592    1.4916661625   -0.3845594771
N        4.4350961741   -0.4877944028    0.3726567309
N        1.6507981480   -1.3610274534   -0.0028496023
O        1.6453150069   -0.1446700980   -1.9196565829
H        5.4608021736    2.6057240992    0.3975079278
H        6.2984057456    0.2950837709    1.2996694643
H        0.1167679413   -2.7149474574    0.4759367724
H        0.4809500038   -2.5778097552   -1.2564670637
H       -0.4077591483   -1.2744117632   -0.4252589636
H        4.4773881673   -1.4949872898    0.5014609796
H        2.0341073490   -1.4203292244    0.9324609133
16   

C        4.8474891767    1.6520166881    0.3550568435
C        5.3812418992    0.4485957368    0.7105623296
C        3.4357236997    0.1489168161   -0.3386515308
C        2.2185095525   -0.5440366870   -0.8785176946
C        0.3313968703   -2.0031524460   -0.2675384959
N        3.6334666034    1.4534098987   -0.2780170278
N        4.4907695461   -0.5281251022    0.2857510490
N        1.5827692643   -1.3330718633    0.0515649966
O        1.7496802108   -0.3748504360   -1.9980523487
H        5.3022333414    2.6185536640    0.5406165655
H        6.3291616695    0.3063607966    1.2169078885
H        0.0109779300   -2.6256112590    0.5734956804
H        0.4579047000   -2.6472046444   -1.1442173966
H       -0.4513941809   -1.2661909043   -0.4764451097
H        4.5965733216   -1.5378322446    0.3381854822
H        1.9138094636   -1.2928220909    1.0083269349
16   

C        4.7838781448    1.6492275488    0.4815919542
C        5.4298252817    0.4643092709    0.6802169856
C        3.4417168515    0.1098057568   -0.2591196885
C        2.2624759378   -0.6234205979   -0.8437305193
C        0.3124300678   -2.0187119061   -0.2950012733
N        3.5462324206    1.4151692403   -0.0926296821
N        4.5862368401   -0.5367044323    0.2177669892
N        1.5021653305   -1.2756062150    0.0902469727
O        2.0223595310   -0.7082340696   -2.0425122874
H        5.1789110133    2.6272669764    0.7322170570
H        6.4200676749    0.3508791012    1.1064250647
H       -0.1042422760   -2.5398335362    0.5723583062
H        0.5583385252   -2.7639475817   -1.0588042318
H       -0.4471663967   -1.3372324826   -0.6925631190
H        4.7674292740   -1.5353172031    0.1557507045
H        1.7036276111   -1.0924582304    1.0668106287
16   

C        4.7761951222    1.6662871203    0.5503065457
C        5.5327830433    0.5314160092    0.5721586091
C        3.4829265686    0.0754595236   -0.1677803410
C        2.3526936735   -0.6885071675   -0.8087449715
C        0.3337390878   -2.0244870309   -0.3477562023
N        3.5081998981    1.3739116539    0.0754409548
N        4.7270005267   -0.4977477439    0.1046202440
N        1.4330520626   -1.1717456771    0.0785593208
O        2.4133893068   -1.1371544009   -1.9483279256
H        5.1173570727    2.6511617612    0.8487031978
H        6.5693815164    0.4698069609    0.8829907462
H       -0.1411757835   -2.4893460854    0.5215749872
H        0.6951417992   -2.8221667742   -1.0051908169
H       -0.4156783249   -1.4326284351   -0.8837376152
H        4.9803532854   -1.4618607285   -0.0978491925
H        1.4654875098   -0.8001081937    1.0217992187
16   

C        4.7325978121    1.6393922171    0.6733240364
C        5.5748556620    0.5756599492    0.5333894569
C        3.5089765870    0.0044672064   -0.0735871949
C        2.4153475424   -0.7846518920   -0.7339572275
C        0.3036116897   -1.9930523141   -0.3299145641
N        3.4558559847    1.2816662283    0.2708790863
N        4.8147781384   -0.4758664948    0.0401899134
N        1.3902791884   -1.1263463176    0.1003718062
O        2.5881292219   -1.3965785977   -1.7832042863
H        5.0202625155    2.6216181691    1.0309294610
H        6.6360112834    0.5762674145    0.7543672828
H       -0.2581442826   -2.3512016305    0.5381237943
H        0.6917751934   -2.8649575647   -0.8666757971
H       -0.3775635872   -1.4432917493   -0.9878707346
H        5.1211913759   -1.3924883833   -0.2783796028
H        1.3465435770   -0.6361738927    0.9879376724
16   

C        4.7001535453    1.5824650905    0.7581587704
C        5.5980881192    0.5928092206    0.4844399175
C        3.5371066733   -0.0768055277   -0.0343336599
C        2.4655950417   -0.8932826960   -0.6819451928
C        0.2679820717   -1.9515764866   -0.3107143766
N        3.4245249438    1.1675542884    0.4095093683
N        4.8759623558   -0.4707160450   -0.0389735332
N        1.3677143191   -1.0938773080    0.1031564785
O        2.6802929523   -1.6093758441   -1.6552535002
H        4.9474690861    2.5535367584    1.1719908906
H        6.6693915531    0.6501787106    0.6390248194
H       -0.3496439536   -2.2144337369    0.5534350266
H        0.6444957215   -2.8796132039   -0.7534267680
H       -0.3562929895   -1.4334967217   -1.0462000519
H        5.2147246168   -1.3431806226   -0.4393801867
H        1.2971296328   -0.5090520419    0.9303776434
16   

C        4.6767693484    1.5273850772    0.8266068811
C        5.6098466335    0.6160355820    0.4268503856
C        3.5610353481   -0.1427786646   -0.0108016826
C        2.5035071606   -0.9922977241   -0.6243145789
C        0.2371907472   -1.9061211410   -0.2822625336
N        3.4060102789    1.0583554817    0.5317606062
N        4.9167147888   -0.4529563493   -0.1238462527
N        1.3555431158   -1.0620168944    0.1079048631
O        2.7316889694   -1.7823718745   -1.5355954437
H        4.8953255704    2.4813233568    1.2931260337
H        6.6840146852    0.7280852128    0.5190722615
H       -0.4194194635   -2.0803854928    0.5755299160
H        0.5911126169   -2.8782874592   -0.6410317744
H       -0.3399218133   -1.4218935923   -1.0768904463
H        5.2752532033   -1.2834409621   -0.5913069987
H        1.2825374225   -0.4037670915    0.8787151575
16   

C        4.6658849249    1.4886565819    0.8856807922
C        5.6125883339    0.6549914062    0.3660277420
C        3.5769968610   -0.1703082301   -0.0072538154
C        2.5293508529   -1.0505446598   -0.5840817702
C        0.2067559667   -1.8304821732   -0.2942568619
N        3.4014719723    0.9772487981    0.6364891848
N        4.9356928883   -0.4068021330   -0.2177281780
N        1.3415912743   -1.0011233169    0.0788877280
O        2.7626275775   -1.8931568929   -1.4457738564
H        4.8699638747    2.4169063910    1.4073252895
H        6.6843568346    0.8124008309    0.4041745364
H       -0.4802395490   -1.9296836875    0.5516424018
H        0.5371527554   -2.8344181251   -0.5809025101
H       -0.3292446560   -1.3786177517   -1.1352921312
H        5.3017272139   -1.1967315855   -0.7460459154
H        1.2744826591   -0.2924923529    0.8051582183
16   

C        4.6707137026    1.4260220309    0.8109897197
C        5.6045456751    0.6332462997    0.2102861148
C        3.5719331028   -0.2383075699   -0.0590719385
C        2.5224963279   -1.1632207415   -0.5525045880
C        0.1501460043   -1.7963393022   -0.2898076266
N        3.4075611273    0.8824392189    0.6328224804
N        4.9208770025   -0.4335290581   -0.3561370275
N        1.3064237372   -0.9701807502    0.0213162391
O        2.7504712718   -2.0843168545   -1.3313579421
H        4.8826850113    2.3459894910    1.3440372224
H        6.6721567103    0.8192009889    0.1865159018
H       -0.4966280159   -1.8821074812    0.5886722480
H        0.4569831647   -2.8070051479   -0.5792258335
H       -0.4205312846   -1.3517602914   -1.1114648535
H        5.2758516018   -1.2129923966   -0.9072329092
H        1.2561621481   -0.1972245186    0.6809952450
16   

C        4.6952752451    1.4614882276    0.8046105484
C        5.6166079805    0.7359513198    0.1073979662
C        3.5961947305   -0.1768895304   -0.1130692496
C        2.5577950162   -1.1330819576   -0.5670933840
C        0.1465795201   -1.6661543176   -0.4126309995
N        3.4404956645    0.8883192009    0.6633734561
N        4.9330699001   -0.3158559804   -0.4864481735
N        1.3119505624   -0.8476541869   -0.1107331554
O        2.8010068640   -2.0932184346   -1.2923550718
H        4.9106400827    2.3528827238    1.3829236277
H        6.6762309770    0.9544635301    0.0411212391
H       -0.4048690660   -1.8855455494    0.5068315762
H        0.4359138139   -2.6213084130   -0.8634137507
H       -0.5121839561   -1.1404200105   -1.1108881866
H        5.2829821107   -1.0639424986   -1.0825045182
H        1.2562503556   -0.0386875283    0.5042116206
16   

C        4.6695370956    1.4296033520    0.8047625905
C        5.5733678019    0.7415047000    0.0491238127
C        3.5596424431   -0.1961683269   -0.1222476130
C        2.5285891396   -1.1854084028   -0.5204617882
C        0.0962258389   -1.6086887915   -0.5681639108
N        3.4205677424    0.8363842567    0.7001405841
N        4.8838067195   -0.3048552116   -0.5474368123
N        1.2586465261   -0.8040161030   -0.2252516832
O        2.7855535175   -2.2079558388   -1.1492463243
H        4.8939491730    2.3062579906    1.4018617854
H        6.6262572983    0.9789149495   -0.0508637722
H       -0.1551599637   -2.2795671730    0.2595870345
H        0.2856356860   -2.2090335657   -1.4643043442
H       -0.7606762340   -0.9603979824   -0.7751366050
H        5.2272365549   -1.0441354781   -1.1580083736
H        1.1754002533    0.0842530664    0.2638404565
16   

C        4.6566119129    1.5204992073    0.8376812754
C        5.5445399337    0.8921753151    0.0142268331
C        3.5629827459   -0.1221022534   -0.0793840855
C        2.5629940109   -1.1690732804   -0.4095087915
C        0.1451499398   -1.6159779312   -0.6121354121
N        3.4304608704    0.8752787027    0.7865086100
N        4.8667768738   -0.1667229451   -0.5737660631
N        1.2717681472   -0.7578005937   -0.2817001897
O        2.8601281026   -2.2351218475   -0.9407134733
H        4.8779209874    2.3886399479    1.4482243551
H        6.5803539502    1.1752814854   -0.1336272962
H       -0.0673642830   -2.2951705667    0.2199424070
H        0.3575309812   -2.2074263284   -1.5089621778
H       -0.7436995026   -1.0093248894   -0.8102971778
H        5.2129841972   -0.8874668257   -1.2044466807
H        1.1440864289    0.1627571465    0.1310964842
16   

C        4.6890142525    1.4839974093    0.8898877416
C        5.5193814561    0.9315974268   -0.0408866221
C        3.5535548279   -0.1174133853   -0.0491424296
C        2.5590459430   -1.1873761687   -0.3365048661
C        0.1577250077   -1.6291795925   -0.6924999709
N        3.4760627884    0.8128176236    0.8941469796
N        4.8163803655   -0.1030269815   -0.6423715067
N        1.2668597236   -0.7527567114   -0.3502165672
O        2.8733645290   -2.2787796976   -0.8020787856
H        4.9428351118    2.3147726492    1.5385730708
H        6.5355461745    1.2464326712   -0.2486967001
H       -0.1001899262   -2.2610070047    0.1637959611
H        0.4166749392   -2.2694294168   -1.5422696541
H       -0.7184697759   -1.0356034727   -0.9704621791
H        5.1326235780   -0.7857719405   -1.3283916183
H        1.1132352296    0.1875029567    0.0034533849
16   

C        4.7385797142    1.4475653694    0.9568367456
C        5.4892514364    0.9726357933   -0.0783255963
C        3.5484611130   -0.1172586434    0.0247179265
C        2.5552748425   -1.2076892152   -0.2175901739
C        0.1863940155   -1.6671882600   -0.7319494195
N        3.5443931865    0.7478720267    1.0295240666
N        4.7526056560   -0.0402560677   -0.6765866686
N        1.2740826509   -0.7672921664   -0.3805686888
O        2.8857805914   -2.3288427238   -0.5917484729
H        5.0363498728    2.2423598082    1.6314009867
H        6.4769916408    1.3221569085   -0.3559639820
H       -0.1256893380   -2.2406208381    0.1471661734
H        0.4962431045   -2.3622847985   -1.5192506831
H       -0.6699209096   -1.0954505764   -1.1022881983
H        5.0253686013   -0.6820998138   -1.4181504143
H        1.0953118186    0.1959162348   -0.1130463194
16   

C        4.8012080108    1.3985814630    1.0286768236
C        5.4514057075    1.0061219715   -0.1043383700
C        3.5459282549   -0.1260865222    0.1188487462
C        2.5397718985   -1.2212609754   -0.0886865250
C        0.2177292105   -1.6943687073   -0.7721915113
N        3.6298413600    0.6723063237    1.1715854794
N        4.6729361928    0.0186249079   -0.6921362511
N        1.2903313059   -0.7783933421   -0.4148611470
O        2.8683097979   -2.3780156368   -0.3320161300
H        5.1538448146    2.1538856942    1.7219035274
H        6.4024263830    1.3918250483   -0.4531586092
H       -0.1627935922   -2.1954230299    0.1240729992
H        0.5727605792   -2.4506219480   -1.4800303766
H       -0.6032765401   -1.1463360365   -1.2443579817
H        4.8860480522   -0.5720175423   -1.4929459633
H        1.1048865550    0.2073541480   -0.2603729420
16   

C        4.8791930870    1.3052244712    1.0833704432
C        5.3937156684    1.0165598177   -0.1465790459
C        3.5580667180   -0.1884563501    0.2217104678
C        2.5165119499   -1.2627034616    0.0398764768
C        0.2455279954   -1.7174209830   -0.8023663706
N        3.7463317865    0.5402931567    1.3076440882
N        4.5691384118    0.0529427125   -0.7109995240
N        1.3287912553   -0.8083404739   -0.4595645859
O        2.7904633823   -2.4573864295    0.0038125583
H        5.2984036938    2.0173581244    1.7851811363
H        6.2872572044    1.4551420621   -0.5757385418
H       -0.2241264696   -2.1036220089    0.1083876021
H        0.6193242081   -2.5587875905   -1.3952437802
H       -0.5119039405   -1.1944048475   -1.3940807592
H        4.6935101789   -0.4603635395   -1.5803347269
H        1.1806375683    0.1950749810   -0.4508377970
16   

C        4.9015463432    1.2377801628    1.0893445792
C        5.2563873420    1.0703663128   -0.2170980715
C        3.5488199585   -0.2649533940    0.2944957795
C        2.4515522293   -1.2848950335    0.1341041782
C        0.2129099186   -1.6713686176   -0.8091612657
N        3.8334757394    0.4108532980    1.3921617092
N        4.3994999712    0.1156806042   -0.7479928915
N        1.3734538840   -0.8261212921   -0.5750923971
O        2.5188287812   -2.4444517086    0.5250381353
H        5.3831230706    1.9134261769    1.7872065500
H        6.0669241387    1.5851626329   -0.7202030052
H       -0.2866723332   -1.8991013828    0.1384732268
H        0.5137756226   -2.6089179961   -1.2884563781
H       -0.4984421242   -1.1619691936   -1.4664181061
H        4.4129006207   -0.2965084355   -1.6774146072
H        1.3441809894    0.1637988693   -0.7919050661
16   

C        4.9929612284    1.1362189310    1.1178573239
C        5.1983693568    1.0839543652   -0.2292222486
C        3.5691913204   -0.3222545370    0.3569981397
C        2.4314409051   -1.2928350116    0.2278915038
C        0.2253693306   -1.6366881661   -0.8107202562
N        3.9686570098    0.2737745894    1.4658413354
N        4.2919837851    0.1643960077   -0.7393926835
N        1.4489899161   -0.8691132509   -0.6365441346
O        2.3051652647   -2.3218012137    0.8813988681
H        5.5454911002    1.7590749138    1.8122482936
H        5.9432192801    1.6527882981   -0.7740112996
H       -0.3348948200   -1.6765703051    0.1295100319
H        0.4594149547   -2.6578129901   -1.1299309964
H       -0.4057868953   -1.1732085261   -1.5751095882
H        4.2029360630   -0.1617913494   -1.6981027772
H        1.5230850078    0.0699837496   -1.0096476039
16   

C        5.1067281515    1.0829414422    1.1297528323
C        5.1886319523    1.1193695835   -0.2304609000
C        3.5879986625   -0.3018244100    0.4075761471
C        2.4358386728   -1.2509323584    0.3205404692
C        0.2928630167   -1.6778901174   -0.8214367733
N        4.1040013460    0.2101701810    1.5112074467
N        4.2237454323    0.2470421918   -0.7153803856
N        1.5228885528   -0.9171695976   -0.6611770699
O        2.2231223857   -2.1800522127    1.0908934734
H        5.7305284262    1.6508115456    1.8107829298
H        5.8914927404    1.7151585519   -0.8015884942
H       -0.3089475452   -1.6245654551    0.0921607510
H        0.5210851214   -2.7270705189   -1.0370297740
H       -0.2956340054   -1.2750543344   -1.6513853356
H        4.0554053172   -0.0205160696   -1.6812444117
H        1.6358588061   -0.0269371908   -1.1301930896
16   

C        5.1667192951    1.0122223279    1.1448939901
C        5.1500546853    1.1483006980   -0.2107151379
C        3.5382372493   -0.2581225233    0.4426320914
C        2.3686705432   -1.1811280171    0.3785961021
C        0.3088295193   -1.7137227816   -0.8721303142
N        4.1632910409    0.1452717391    1.5358146059
N        4.1187609184    0.3481597144   -0.6829374508
N        1.5305477178   -0.9419754838   -0.7000397653
O        2.0888665281   -2.0333547151    1.2138170159
H        5.8607894957    1.5051123218    1.8162477518
H        5.8326233821    1.7610368202   -0.7884623167
H       -0.3441117771   -1.5918610143   -0.0011454785
H        0.5456411285   -2.7760159627   -0.9937644700
H       -0.2304988837   -1.3755112396   -1.7621410219
H        3.8848047558    0.1509151967   -1.6514754331
H        1.6775000600   -0.1006287825   -1.2421794188
16   

C        5.0856786052    1.3581785549   -0.2736903539
C        5.2574775453    0.4011022728    0.6796756913
C        3.2538098348    0.1682860226   -0.2934775001
C        1.8966973811   -0.3547988696   -0.6143295699
C        0.3699108626   -2.2807159064   -0.3693293229
N        3.8459737994    1.2043607713   -0.8645657948
N        4.1030795253   -0.3695240698    0.6892204789
N        1.6456277818   -1.6279538838   -0.1148627204
O        1.0493484095    0.2309105282   -1.2787701308
H        5.8065319593    2.1268637435   -0.5283854632
H        6.1342845261    0.2914279088    1.3075937283
H        0.3592880953   -3.2793233402    0.0778971101
H        0.2015034366   -2.3796890831   -1.4471455085
H       -0.4479026818   -1.6971580754    0.0666058739
H        3.8712362791   -1.1129477337    1.3399472942
H        2.4135853726   -2.1595572050    0.2701621636
16   

C        5.0679834476    1.6195825666    0.0284691271
C        5.2968304936    0.5666768118    0.8606468057
C        3.3389142602    0.3012334834   -0.1957897220
C        2.0515908334   -0.2837419663   -0.6657058408
C        0.4724434711   -2.1717758389   -0.4430302545
N        3.8600386838    1.4424515585   -0.6179987562
N        4.2098074927   -0.2879375089    0.7384579491
N        1.7083713091   -1.4962943763   -0.0755069432
O        1.3153573913    0.2191025762   -1.5072305993
H        5.7318699558    2.4651942873   -0.1114175542
H        6.1732130464    0.4410581213    1.4861386048
H        0.3892682163   -3.1251903184    0.0874349585
H        0.4547423335   -2.3723261237   -1.5196541110
H       -0.3913116897   -1.5508194169   -0.1822302749
H        4.0834004623   -1.1776718958    1.2078665515
H        2.2952991634   -1.8835268579    0.6478379801
