49

C     -2.45924   -1.65322    6.05716
C     -1.78359   -0.64207    5.38240
C     -3.18629   -2.61768    5.34825
C     -2.60677   -1.50173    3.23643
C     -1.87020   -0.57117    3.99211
C     -3.25040   -2.53472    3.94443
C     -5.95997   -3.99165    7.37499
C     -3.73391   -3.75787    8.65090
C     -3.81190   -3.74012    6.12718
C     -6.09168   -5.44568    7.79577
C     -4.15028   -5.02138    9.37478
C     -4.83876   -6.03976    8.45667
C     -2.28310   -2.65647   -1.11411
C     -1.87571   -4.12734   -1.21741
C     -0.02690   -3.00833   -0.36040
C     -4.56569   -3.34737    7.41701
C     -1.25940   -2.12626   -0.09648
C     -2.27892    2.01934    2.90696
C     -2.66313   -1.46757    1.72367
O     -6.91609   -3.32371    7.02601
O     -2.80688   -3.05685    9.01664
O     -3.73290   -4.90329    5.77635
O     -0.11739    1.39740    4.29903
O     -0.37195    0.41893    1.95806
O     -0.44442   -4.10403   -1.19137
O     -1.66726   -2.36511    1.25730
S     -0.96162    0.82443    3.24131
Cl    -4.18923   -3.71070    3.05135
H     -2.39560   -1.71873    7.13980
H     -1.18544    0.08492    5.92076
H     -6.95636   -5.48602    8.46775
H     -6.37009   -6.01395    6.90182
H     -3.26750   -5.43100    9.87207
H     -4.84104   -4.70157   10.16976
H     -4.13718   -6.36891    7.68788
H     -5.11754   -6.92248    9.03936
H     -2.14051   -2.15560   -2.07791
H     -3.31840   -2.50942   -0.79516
H     -2.26900   -4.70007   -0.36514
H     -2.18385   -4.61229   -2.14720
H      0.76096   -2.46401   -0.88973
H      0.36660   -3.37380    0.59430
H     -4.70196   -2.26617    7.44383
H     -1.03772   -1.05980   -0.21389
H     -1.78718    2.89294    2.47356
H     -2.99272    1.59352    2.20097
H     -2.76085    2.27781    3.85059
H     -3.66111   -1.76646    1.38317
H     -2.46542   -0.46276    1.34349
