16   

C        0.5835530675    0.8867059269    1.7731429562
C        0.3344248431    0.9003437775    3.1258243875
C       -0.2610893534    0.1632357226    0.9623554673
C       -4.2782735668   -1.9971502455    4.4797689252
C       -4.3309924447   -2.6059300810    3.2689068673
C       -1.4934568340   -0.4679937987    2.7986909337
C       -2.6556103790   -1.2100371894    3.3143732217
N       -0.6923707056    0.2317340589    3.6338208919
N       -1.2902884055   -0.5056209028    1.4705701510
N       -3.2196027328   -1.1199490757    4.4892672797
O       -3.3168738897   -2.1251998485    2.5131284078
H        1.4201590466    1.4312799082    1.3593068192
H        0.9823969897    1.4630425791    3.7882225651
H       -0.0863612631    0.1381448828   -0.1071897736
H       -4.9602491639   -2.1724526206    5.3035666513
H       -5.0579888811   -3.3470983410    2.9599879097
16   

C        0.5779208843    0.8955902775    1.7741235952
C        0.3873381481    0.8314877857    3.1350282331
C       -0.3155477221    0.2382499186    0.9590643088
C       -4.3332486888   -1.9259441932    4.4425685450
C       -4.2549064607   -2.6873757851    3.3224353968
C       -1.4777479449   -0.4832503314    2.8063988359
C       -2.6427222414   -1.2214117697    3.3261236023
N       -0.6297657564    0.1509907625    3.6470008462
N       -1.3356500983   -0.4417875513    1.4708379040
N       -3.3131256816   -1.0040693353    4.4248001171
O       -3.1949212074   -2.2602708389    2.5977582781
H        1.4065856645    1.4499023488    1.3572467884
H        1.0740293102    1.3420803633    3.8006267881
H       -0.1878164774    0.2761326997   -0.1167325214
H       -5.0801116449   -2.0258846010    5.2214649100
H       -4.9244179367   -3.4954147045    3.0538842673
16   

C        0.5647724697    0.8994385279    1.7805776956
C        0.4333205373    0.7555662705    3.1426660330
C       -0.3807411656    0.3146707868    0.9684843589
C       -4.3980491357   -1.8609459161    4.3988950973
C       -4.1905822949   -2.7575121271    3.4013767065
C       -1.4752862876   -0.4932138506    2.8191821012
C       -2.6448301174   -1.2267187641    3.3449546727
N       -0.5769306596    0.0677142632    3.6588296759
N       -1.3944189507   -0.3722256736    1.4839204559
N       -3.4176458492   -0.8981300261    4.3419975164
O       -3.0873180371   -2.3761381039    2.7165411194
H        1.3877709263    1.4598283310    1.3605996722
H        1.1615842811    1.2087344472    3.8056437477
H       -0.3000938297    0.4168529330   -0.1076892119
H       -5.2073395606   -1.8956491657    5.1188438976
H       -4.8021026009   -3.6259505557    3.1888719875
16   

C        0.5594686923    0.9070922813    1.7764764854
C        0.4816149389    0.6759650774    3.1309730552
C       -0.4402772902    0.4096314335    0.9706461699
C       -4.4684554030   -1.7987560489    4.3146763860
C       -4.1283377617   -2.8073899137    3.4721091236
C       -1.4813653195   -0.4822925105    2.8107191904
C       -2.6595605159   -1.2108311084    3.3375966994
N       -0.5296212953   -0.0116124882    3.6461534463
N       -1.4549736009   -0.2768829486    1.4846615471
N       -3.5330299148   -0.7959078995    4.2082981269
O       -2.9854636342   -2.4569223761    2.8372811469
H        1.3830996433    1.4673863680    1.3575977336
H        1.2535609423    1.0592981061    3.7885622917
H       -0.4019100275    0.5813962597   -0.0989928191
H       -5.3382992861   -1.7842275415    4.9609356758
H       -4.6767326743   -3.7307518803    3.3307698122
16   

C        0.5685586758    0.9024958196    1.7832549098
C        0.5310361449    0.5741576630    3.1194792748
C       -0.4846025460    0.5138837638    0.9852718208
C       -4.5417926359   -1.7494448952    4.2169437009
C       -4.0634042615   -2.8438133231    3.5711485845
C       -1.4997784989   -0.4566916257    2.7973529361
C       -2.6907725131   -1.1803801207    3.3168223428
N       -0.4935801356   -0.1009196758    3.6252179311
N       -1.5121980661   -0.1604925895    1.4896705408
N       -3.6616811886   -0.7073330203    4.0382544482
O       -2.8887159515   -2.5072608817    2.9889041570
H        1.4028540092    1.4527376516    1.3722161386
H        1.3464512629    0.8692039590    3.7701058670
H       -0.4776292426    0.7619187780   -0.0699721550
H       -5.4679750053   -1.7039659554    4.7778503821
H       -4.5391822632   -3.8159761601    3.5280301838
16   

C        0.5729516542    0.8983403203    1.7921320178
C        0.5548584172    0.4512957652    3.0937148708
C       -0.5247832777    0.6455571474    0.9998024177
C       -4.6327492924   -1.7127985131    4.0829996438
C       -4.0183437712   -2.8520993865    3.6729576319
C       -1.5489509433   -0.4156586591    2.7548189642
C       -2.7533230178   -1.1393395868    3.2498830875
N       -0.4948982578   -0.2045092828    3.5727950640
N       -1.5764881397   -0.0104606281    1.4779384327
N       -3.8145575981   -0.6419060840    3.8064434467
O       -2.8208267041   -2.5140991681    3.1401743189
H        1.4273668096    1.4331914448    1.4026797476
H        1.4067676714    0.6348613419    3.7385586851
H       -0.5328126273    0.9856002265   -0.0294764213
H       -5.6083507233   -1.6570308990    4.5516089781
H       -4.4165951216   -3.8558933677    3.7573833464
16   

C        0.5783777753    0.9009229596    1.7988120037
C        0.5800994659    0.3316503624    3.0516666104
C       -0.5534027271    0.7716530517    1.0251033556
C       -4.6897698853   -1.7238211274    3.9343196260
C       -3.9617015940   -2.8581855705    3.7716345772
C       -1.5753462498   -0.4000753966    2.7110917457
C       -2.7829038375   -1.1348424342    3.1739509294
N       -0.4841106717   -0.3200192813    3.5038144721
N       -1.6187545650    0.1188600123    1.4763408526
N       -3.9230281567   -0.6454708796    3.5578152902
O       -2.7442766511   -2.5101296857    3.2932884307
H        1.4442946493    1.4328664600    1.4314139570
H        1.4598726386    0.4137267849    3.6797860047
H       -0.5769860217    1.2066807702    0.0324813421
H       -5.7073153465   -1.6761582763    4.3042231159
H       -4.2959000186   -3.8655571202    3.9880636284
16   

C        0.5786344039    0.9159482520    1.8043341445
C        0.6126025870    0.2448817536    3.0051722341
C       -0.5852094519    0.8795683529    1.0693350000
C       -4.7183795482   -1.7400899739    3.8168770800
C       -3.9175659642   -2.8336482162    3.8925628325
C       -1.5766016481   -0.3981200293    2.6974939077
C       -2.7800939182   -1.1407983584    3.1415150940
N       -0.4517832164   -0.4139245706    3.4464728642
N       -1.6504791918    0.2192979022    1.5091575262
N       -3.9783566284   -0.6785839134    3.3504301465
O       -2.6802937978   -2.4777332264    3.4748037943
H        1.4446615900    1.4540424923    1.4462781285
H        1.5183547811    0.2515868015    3.6008563736
H       -0.6344177008    1.3947434408    0.1168268335
H       -5.7677966181   -1.7080625900    4.0855581437
H       -4.2158461060   -3.8187360480    4.2301283171
16   

C        0.5721952903    0.9272287317    1.8048547907
C        0.6423172776    0.1711931712    2.9524110721
C       -0.6216457381    0.9643256280    1.1197600264
C       -4.7340818327   -1.7785981395    3.7100789829
C       -3.8925220560   -2.8015160955    4.0062976792
C       -1.5707774573   -0.4111713810    2.6943552372
C       -2.7686437239   -1.1575242146    3.1312680206
N       -0.4159727921   -0.4988836581    3.3914319520
N       -1.6808212062    0.2929535143    1.5568374322
N       -4.0049188901   -0.7459769222    3.1683711019
O       -2.6394767337   -2.4302733111    3.6541373121
H        1.4334222913    1.4744233976    1.4490215216
H        1.5720078228    0.1194596138    3.5076315819
H       -0.6999675970    1.5476022347    0.2094042383
H       -5.8047047906   -1.7748191894    3.8781128591
H       -4.1739691647   -3.7492068527    4.4489989126
16   

C        0.5623834328    0.9396926038    1.8048646281
C        0.6651114087    0.1107843146    2.8983311120
C       -0.6577889302    1.0409996464    1.1749205679
C       -4.7429299500   -1.8252828199    3.6139475604
C       -3.8859661570   -2.7515795708    4.1132381018
C       -1.5667023552   -0.4218526282    2.6951361807
C       -2.7608623401   -1.1667580728    3.1327682215
N       -0.3865865783   -0.5690892491    3.3381515488
N       -1.7105248848    0.3603973664    1.6127078023
N       -4.0153890222   -0.8292402137    3.0061071347
O       -2.6241829625   -2.3553350281    3.8255953074
H        1.4185251827    1.4943973999    1.4483932367
H        1.6155072384    0.0089940858    3.4098584453
H       -0.7626649514    1.6836936440    0.3082974341
H       -5.8235929394   -1.8629684772    3.6862128235
H       -4.1629719380   -3.6508910368    4.6497245921
16   

C        0.5524580579    0.9576470287    1.8121454817
C        0.6801924213    0.0637256225    2.8502863901
C       -0.6891516442    1.1199549698    1.2395825261
C       -4.7451377639   -1.8743466056    3.5345354393
C       -3.8935371513   -2.6793495021    4.2185531124
C       -1.5674453144   -0.4204457477    2.7012357553
C       -2.7603092496   -1.1609466298    3.1439190763
N       -0.3673422476   -0.6221826967    3.2906621411
N       -1.7378423245    0.4339711890    1.6783088960
N       -4.0140596502   -0.9205851970    2.8664543822
O       -2.6314751885   -2.2473442501    3.9898903813
H        1.4054893469    1.5165393716    1.4547620743
H        1.6472072500   -0.0850990263    3.3172009971
H       -0.8147181328    1.8163989584    0.4184332238
H       -5.8247740781   -1.9672004501    3.5192595508
H       -4.1743683699   -3.5209048243    4.8400249561
16   

C        0.5490481097    0.9715129842    1.8276902305
C        0.6933539301    0.0150050594    2.8061479013
C       -0.7084557672    1.1943942785    1.3131709665
C       -4.7365160405   -1.9344111919    3.4596920195
C       -3.9122961081   -2.5985522245    4.3085191342
C       -1.5672838730   -0.4194497466    2.7059281953
C       -2.7615353951   -1.1545346662    3.1522033422
N       -0.3528689508   -0.6752277858    3.2428788829
N       -1.7560094260    0.5048648835    1.7489051560
N       -3.9947168180   -1.0285273564    2.7389717164
O       -2.6571335919   -2.1235782570    4.1335106065
H        1.4012457089    1.5331042328    1.4725562917
H        1.6725742755   -0.1803403823    3.2283365694
H       -0.8478368956    1.9427733470    0.5414267586
H       -5.8045159605   -2.0925011669    3.3656120765
H       -4.2069767816   -3.3739431192    5.0051117329
16   

C        0.5479140200    0.9806541659    1.8428950728
C        0.7019444200   -0.0365443599    2.7565428607
C       -0.7207755834    1.2637267005    1.3889369937
C       -4.7180210823   -2.0062213895    3.3915217336
C       -3.9401947055   -2.5117074222    4.3817796954
C       -1.5694809895   -0.4189194107    2.7038512655
C       -2.7662633005   -1.1489628187    3.1532201611
N       -0.3452547635   -0.7293527811    3.1868106067
N       -1.7694755096    0.5722733125    1.8189647141
N       -3.9608223167   -1.1526407893    2.6243712614
O       -2.6995949422   -1.9866639698    4.2515490719
H        1.4010385427    1.5436250332    1.4921958426
H        1.6897287945   -0.2783046670    3.1321878328
H       -0.8682436543    2.0623463339    0.6709209262
H       -5.7641844433   -2.2390444482    3.2308819287
H       -4.2564023085   -3.2136963066    5.1437070174
16   

C        0.6387285730    0.8369685287    1.8289045010
C       -0.3408348998    1.4524153005    2.5739071238
C        0.4989011744   -0.5034793090    1.5467786891
C       -3.9498818453   -2.8844850659    3.8682212613
C       -4.6558450672   -1.7254786281    3.8643628288
C       -1.4726472766   -0.5480637769    2.7248364727
C       -2.6255460079   -1.3481765063    3.1755755822
N       -1.3906140173    0.7699795244    3.0143554266
N       -0.5514015026   -1.1873322576    1.9853474193
N       -2.6694849395   -2.6259683864    3.4385339312
O       -3.8382032723   -0.7365203211    3.4339318129
H        1.4941176633    1.3926849430    1.4722008087
H       -0.2577332701    2.5080742991    2.8061848459
H        1.2548650455   -1.0095863549    0.9573175232
H       -4.3321178848   -3.8541097682    4.1652042326
H       -5.6927194895   -1.6110421312    4.1560936428
16   

C        0.6291903527    0.8432513987    1.8202975525
C       -0.3059355330    1.4278013997    2.6432927802
C        0.4505685055   -0.4741944932    1.4618417995
C       -3.9277809410   -2.8648364862    3.9618423430
C       -4.6829286879   -1.7582475817    3.7437101798
C       -1.4661305941   -0.5597737231    2.7231230822
C       -2.6216733901   -1.3634341186    3.1721693703
N       -1.3491736892    0.7369871330    3.0862067938
N       -0.5936414797   -1.1661988809    1.9027220242
N       -2.6276872697   -2.5930315791    3.6050361616
O       -3.8768754018   -0.7902360139    3.2485181883
H        1.4795953800    1.4054398802    1.4618189862
H       -0.1927672418    2.4655739646    2.9356865846
H        1.1701862603   -0.9549662983    0.8090760170
H       -4.2897645752   -3.8065789118    4.3575340413
H       -5.7451508520   -1.6650689349    3.9342782460
16   

C        0.6220955565    0.8579813817    1.8183250880
C       -0.2565641096    1.4045662748    2.7253527023
C        0.3958440020   -0.4293650266    1.3851632417
C       -3.9083708596   -2.8208494239    4.0776053886
C       -4.6917290458   -1.8007421832    3.6432882437
C       -1.4537984945   -0.5619593934    2.7370103695
C       -2.6089975001   -1.3690837869    3.1965672664
N       -1.2909173523    0.7056831820    3.1763136118
N       -0.6398043041   -1.1291633807    1.8345128499
N       -2.5951895841   -2.5240685446    3.7956881570
O       -3.8899203531   -0.8638086689    3.0853460674
H        1.4653719952    1.4264357748    1.4529523874
H       -0.1057651181    2.4185557397    3.0779949481
H        1.0701369066   -0.8795039091    0.6655781495
H       -4.2603494600   -3.7193759762    4.5708118285
H       -5.7700380592   -1.7450886267    3.7297285280
16   

C        0.6093498099    0.8595986498    1.8087595236
C       -0.1966116526    1.3679640969    2.8015882567
C        0.3156177238   -0.3878234906    1.3048528255
C       -3.9107441964   -2.7632072681    4.1851138664
C       -4.7009432445   -1.8718595747    3.5336402509
C       -1.4582469152   -0.5563153344    2.7487684390
C       -2.6115783175   -1.3634286152    3.2290920036
N       -1.2267235570    0.6707997252    3.2647136395
N       -0.7156806128   -1.0860516851    1.7670537892
N       -2.5938726319   -2.4188595949    3.9857099661
O       -3.8989705950   -0.9695011858    2.9215367265
H        1.4489819736    1.4266119324    1.4328992455
H        0.0087226737    2.3498989152    3.2125787700
H        0.9325565139   -0.8074019662    0.5184406092
H       -4.2610793043   -3.6057509276    4.7698228467
H       -5.7838334365   -1.8803037036    3.5090415474
16   

C        0.6067748479    0.8532069114    1.8029941886
C       -0.1030396168    1.3290784757    2.8818838020
C        0.2133474012   -0.3392850667    1.2374109194
C       -3.9162741637   -2.6687277813    4.3136650101
C       -4.6906457593   -1.9550883798    3.4565171159
C       -1.4743504222   -0.5152003559    2.7788121827
C       -2.6236319271   -1.3123750311    3.2916249820
N       -1.1385598456    0.6542793697    3.3655477881
N       -0.8227560545   -1.0161177907    1.7205709239
N       -2.6128503108   -2.2452491045    4.1933172265
O       -3.8919226527   -1.0850126013    2.7953371589
H        1.4504952678    1.4023268086    1.4100982422
H        0.1839291611    2.2664045699    3.3448502531
H        0.7553466644   -0.7331080397    0.3852085113
H       -4.2682949692   -3.4449533872    4.9830363975
H       -5.7603835547   -2.0629655786    3.3247683157
16   

C        0.6080917504    0.8434698587    1.7979050858
C       -0.0053585030    1.2833663034    2.9489277524
C        0.1045611004   -0.2780719035    1.1769960945
C       -3.9503979624   -2.5419397784    4.4111970256
C       -4.6735093156   -2.0361034462    3.3793104233
C       -1.5082699164   -0.4512970737    2.7972532127
C       -2.6578079717   -1.2296652904    3.3307606956
N       -1.0561257933    0.6433922298    3.4465677049
N       -0.9461702170   -0.9213656854    1.6742781813
N       -2.6771100467   -2.0238054795    4.3582639729
O       -3.8735048495   -1.2008370561    2.6761094548
H        1.4640442012    1.3646553467    1.3935828642
H        0.3717777257    2.1628536603    3.4583778865
H        0.5716696091   -0.6438118658    0.2697178725
H       -4.3160900659   -3.2427323982    5.1525862916
H       -5.7091379506   -2.2624269271    3.1566548454
16   

C        0.6142318740    0.8340283318    1.7941068766
C        0.0740883896    1.2197156174    2.9997735710
C        0.0274321674   -0.2144078697    1.1212253105
C       -3.9972027371   -2.4274898911    4.4664132310
C       -4.6381610390   -2.1271498208    3.3080046091
C       -1.5277878163   -0.4203437647    2.7957815768
C       -2.6806488808   -1.1826799398    3.3308197095
N       -0.9870910636    0.5987774001    3.4988790397
N       -1.0335638144   -0.8391441317    1.6203392914
N       -2.7588060165   -1.8288773053    4.4575632802
O       -3.8218649737   -1.3409587009    2.5680319020
H        1.4786345286    1.3399205441    1.3883508504
H        0.5185636913    2.0399775022    3.5519335249
H        0.4369447470   -0.5378473089    0.1710731574
H       -4.3946342468   -3.0432620087    5.2647636632
H       -5.6290841704   -2.4600776316    3.0242062217
16   

C        0.6078624494    0.8419506044    1.7944522681
C        0.1303489748    1.1598355539    3.0451299893
C       -0.0417135472   -0.1376848826    1.0776461471
C       -4.0519365021   -2.3226848207    4.5103540124
C       -4.5952617919   -2.2175449687    3.2711369247
C       -1.5379093742   -0.4096308674    2.7990505095
C       -2.6924606036   -1.1631347926    3.3296527631
N       -0.9309988852    0.5401697673    3.5448580270
N       -1.1030646304   -0.7609637122    1.5777469089
N       -2.8478532445   -1.6583059102    4.5254558056
O       -3.7513527801   -1.4901402513    2.5028034921
H        1.4724028994    1.3469050487    1.3878375104
H        0.6248620619    1.9248975668    3.6328423676
H        0.3178201225   -0.4076247242    0.0912573810
H       -4.4928067267   -2.8489317316    5.3489116989
H       -5.5388156864   -2.6429811222    2.9517452681
16   

C        0.6097845172    0.8530767375    1.7843769778
C        0.1882087043    1.0971736702    3.0709160306
C       -0.0903131550   -0.0622657965    1.0315719701
C       -4.1019796502   -2.2345022892    4.5170244912
C       -4.5324477734   -2.3170689657    3.2330876477
C       -1.5265763238   -0.4181013507    2.7906759977
C       -2.6826881491   -1.1680852169    3.3132557480
N       -0.8674961647    0.4681798072    3.5704621704
N       -1.1464673258   -0.6942013396    1.5317398107
N       -2.9323388767   -1.5121183562    4.5473881972
O       -3.6505807404   -1.6523162944    2.4510654979
H        1.4697435960    1.3656345762    1.3775744722
H        0.7225156277    1.8110825512    3.6874557313
H        0.2240821148   -0.2734368739    0.0158694613
H       -4.5972554027   -2.6701145062    5.3769174009
H       -5.4253733821   -2.8270233519    2.8926135364
16   

C        0.6035092079    0.8600803154    1.7795687811
C        0.2377597024    1.0293171617    3.0947053174
C       -0.1437685055    0.0067035561    1.0001264041
C       -4.1593314857   -2.1558462718    4.5180608520
C       -4.4684537834   -2.4225249746    3.2246525664
C       -1.5155532864   -0.4385121097    2.7915777259
C       -2.6734916508   -1.1861795937    3.3086164109
N       -0.8090287598    0.3873823364    3.5962649967
N       -1.1915707643   -0.6373323437    1.5023516696
N       -3.0253022578   -1.3791905543    4.5518199329
O       -3.5440767609   -1.8220589055    2.4399827676
H        1.4562128056    1.3831765593    1.3709153513
H        0.8091289098    1.6942216274    3.7324423118
H        0.1253648322   -0.1443451303   -0.0390261466
H       -4.7144825458   -2.5003617354    5.3826883593
H       -5.3081063935   -3.0133839524    2.8794652399
16   

C        0.5898082099    0.8762614544    1.7727203659
C        0.2840121177    0.9680418268    3.1105954590
C       -0.2076047375    0.0878748559    0.9748307066
C       -4.2211154469   -2.0703376464    4.5082959424
C       -4.4054235980   -2.5124789882    3.2395693469
C       -1.5081915876   -0.4497870830    2.7943051359
C       -2.6678672084   -1.1944533766    3.3104140411
N       -0.7525630940    0.3131525481    3.6165125320
N       -1.2458837770   -0.5681688463    1.4812459901
N       -3.1237759062   -1.2424826400    4.5340625255
O       -3.4373308165   -1.9737801474    2.4629310259
H        1.4342988849    1.4097739765    1.3604945980
H        0.8948017209    1.5817907752    3.7629128103
H        0.0129490506   -0.0005467447   -0.0828192025
H       -4.8379544664   -2.3277225863    5.3613639389
H       -5.1902336511   -3.1801751203    2.9055973595
