19   

C        0.2864808700   -1.1772538858    0.6306168389
C        2.6535168161   -0.7897978269    0.4997627533
C        0.4331403720   -1.4112734070    2.0072556914
C        2.7306414867   -1.0351240949    1.8827292986
C        1.4104712069   -0.8736013174   -0.1498429341
C        1.1656998246   -0.5942062121   -1.6246463529
C        1.7507102414   -1.5743544994    4.0559737011
N        1.6372554629   -1.3453597496    2.6074575006
N        2.2551292836   -0.6108878080   -2.4426087570
O        0.0705653845   -0.3270181457   -2.0798056356
H       -0.6981296307   -1.2254508175    0.1668248172
H        3.5525220992   -0.5201260864   -0.0465468137
H       -0.4535183304   -1.6469690819    2.5903748577
H        3.6985480870   -0.9651591903    2.3725511912
H        1.8691966808   -2.6426499382    4.2655200267
H        2.6121451281   -1.0353298770    4.4630279469
H        0.8578295955   -1.2060715000    4.5715211468
H        2.0625162658   -0.4273475831   -3.4234062759
H        3.1560357623   -0.9590116807   -2.1454755418
19   

C        0.3036069957   -1.1998505692    0.6072979876
C        2.6511023404   -0.6984413445    0.5152683468
C        0.4457435387   -1.4599335794    1.9799748895
C        2.7249557758   -0.9729827473    1.8926728946
C        1.4219075580   -0.8248216757   -0.1501957205
C        1.1976617185   -0.5066853582   -1.6174457621
C        1.7460995045   -1.6046956080    4.0413430673
N        1.6390592416   -1.3516310508    2.5963494217
N        2.2370359440   -0.7602820158   -2.4587974403
O        0.1607958977   -0.0400291345   -2.0459767567
H       -0.6711218731   -1.2750035436    0.1269037171
H        3.5374553158   -0.3692088213   -0.0205944515
H       -0.4354487664   -1.7484664640    2.5474107955
H        3.6828388108   -0.8669522059    2.3955568908
H        1.8985560532   -2.6721777530    4.2320524620
H        2.5850742688   -1.0452206911    4.4673170082
H        0.8365656416   -1.2758823091    4.5544942152
H        2.0614827342   -0.5643875791   -3.4403550940
H        3.0525754587   -1.2829369969   -2.1679403128
19   

C        0.3257686691   -1.2238159584    0.5927635433
C        2.6499504585   -0.6214031956    0.5375131504
C        0.4655585410   -1.5092193958    1.9608983959
C        2.7229068462   -0.9238274193    1.9088784405
C        1.4341119301   -0.7802619666   -0.1424254813
C        1.2309157939   -0.4273175026   -1.6034517451
C        1.7497026142   -1.6395864728    4.0336028709
N        1.6470595406   -1.3632002976    2.5925638191
N        2.1631952416   -0.8982640296   -2.4724962612
O        0.2836564614    0.2184373302   -2.0042629672
H       -0.6395068210   -1.3251205335    0.0989749326
H        3.5242799008   -0.2447332101    0.0122086641
H       -0.4078992319   -1.8468368797    2.5130051518
H        3.6708945008   -0.7883888114    2.4233328668
H        1.9338659232   -2.7050686839    4.2064726760
H        2.5672757683   -1.0623391509    4.4771583644
H        0.8261916146   -1.3481120511    4.5443978349
H        1.9976437559   -0.6891914470   -3.4529853422
H        2.8878168050   -1.5447589403   -2.1879483806
19   

C        0.3586359055   -1.2687973475    0.5748070860
C        2.6551102171   -0.5700675676    0.5566052317
C        0.4964301775   -1.5741545453    1.9391480412
C        2.7275709909   -0.8947098165    1.9225930779
C        1.4538003414   -0.7611299479   -0.1387378690
C        1.2674855389   -0.3691497741   -1.5917339724
C        1.7612441801   -1.6804205092    4.0253661356
N        1.6638294696   -1.3894416677    2.5868324771
N        2.0351645654   -1.0228903143   -2.4987149654
O        0.4538841007    0.4556963629   -1.9540386044
H       -0.5969936693   -1.3985385660    0.0698910159
H        3.5171156576   -0.1488231446    0.0443761163
H       -0.3676496420   -1.9571296290    2.4762036868
H        3.6641985654   -0.7289850627    2.4488618279
H        1.9826199897   -2.7404404111    4.1874692572
H        2.5522436053   -1.0790952542    4.4849119480
H        0.8224273142   -1.4288064142    4.5294634380
H        1.8771744570   -0.7808100859   -3.4727381588
H        2.6544815019   -1.7793187906   -2.2360622902
19   

C        0.4140868393   -1.3083822636    0.5436590505
C        2.6811744648   -0.5269167758    0.5869152846
C        0.5348891740   -1.6328078204    1.9056134458
C        2.7384344548   -0.8721237331    1.9481323686
C        1.5026591056   -0.7457761842   -0.1378624091
C        1.3479185484   -0.3091795893   -1.5821885613
C        1.7566641404   -1.7197723395    4.0187624843
N        1.6803182526   -1.4156633487    2.5816785488
N        1.9106401949   -1.1033772470   -2.5239326096
O        0.7333183355    0.6856543159   -1.9065845715
H       -0.5266129001   -1.4633384812    0.0190075268
H        3.5362021395   -0.0638699264    0.0992681446
H       -0.3253352077   -2.0555832829    2.4184451707
H        3.6573724935   -0.6797790741    2.4960933290
H        2.0293645165   -2.7686408167    4.1746817408
H        2.5027667419   -1.0831516753    4.5051965454
H        0.7936520404   -1.5237824622    4.5014675425
H        1.7828821003   -0.8130532396   -3.4890932372
H        2.3905882548   -1.9631712325   -2.2882711303
19   

C        0.8825351905   -0.0594729013    0.7027870194
C        2.4968511349   -1.8111160545    0.4433480731
C        0.8096022496   -0.3754151277    2.0707324566
C        2.3812989306   -2.0778495070    1.8178385289
C        1.7380838303   -0.7861865318   -0.1357525593
C        1.9094634904   -0.3965973490   -1.5921232880
C        1.4913784164   -1.6402409611    4.0485294568
N        1.5488398947   -1.3681820389    2.6041669536
N        1.0642500478   -0.9669575755   -2.4828358982
O        2.7574729320    0.3859310770   -1.9675360424
H        0.3004909828    0.7644988736    0.2954666414
H        3.1962428211   -2.3740813519   -0.1711729124
H        0.1496404399    0.2098471064    2.7059874332
H        2.9925168698   -2.8669251526    2.2486104695
H        0.8025337981   -2.4655772553    4.2560851807
H        2.4858709282   -1.8986698503    4.4269402110
H        1.1542045476   -0.7519781756    4.5923279634
H        1.1912341990   -0.7012510855   -3.4551436367
H        0.3521959324   -1.6301910754   -2.2029369202
19   

C        0.8746126593   -0.1262219122    0.6757125567
C        2.5606309453   -1.8143024989    0.4752103922
C        0.7845988827   -0.4277516320    2.0463516816
C        2.4269768576   -2.0688296421    1.8498831822
C        1.7751244053   -0.8284857026   -0.1353722821
C        1.9775249397   -0.4608081465   -1.5933599693
C        1.4738794538   -1.6390702804    4.0553476061
N        1.5505901957   -1.3834432230    2.6088895571
N        0.9964967806   -0.8231676166   -2.4546216147
O        2.9706150406    0.1077626560   -1.9974542406
H        0.2688055460    0.6692386082    0.2473967657
H        3.2958501163   -2.3544196156   -0.1181154522
H        0.0888107872    0.1384626943    2.6602816430
H        3.0605095138   -2.8273184781    2.3027932580
H        0.8112618741   -2.4862306367    4.2603230705
H        2.4692583642   -1.8567855918    4.4564202287
H        1.0944700938   -0.7567652652    4.5806702878
H        1.1537867043   -0.5965317978   -3.4324169948
H        0.1866807303   -1.3533482877   -2.1576586459
19   

C        0.8464008206   -0.1789808379    0.6543208252
C        2.6005278711   -1.7978451102    0.4957630459
C        0.7541171935   -0.4656165426    2.0284770621
C        2.4636224904   -2.0399114863    1.8718543493
C        1.7824719591   -0.8539114350   -0.1385412639
C        1.9917886041   -0.5166036486   -1.6026124916
C        1.4689925841   -1.6235385810    4.0607260105
N        1.5520226375   -1.3815548314    2.6122864652
N        0.9146193507   -0.6557219641   -2.4166198162
O        3.0635297624   -0.1668156729   -2.0528387204
H        0.2122223903    0.5857143211    0.2117526746
H        3.3625505092   -2.3154021649   -0.0843316325
H        0.0291208959    0.0791812330    2.6278006497
H        3.1228213761   -2.7664297560    2.3403047151
H        0.8586984051   -2.5088891448    4.2668704578
H        2.4699315187   -1.7720899715    4.4792363287
H        1.0252729779   -0.7614122349    4.5687799610
H        1.0754858168   -0.4658277837   -3.4017217072
H        0.0410641857   -1.0504417979   -2.0914680791
19   

C        0.8337299207   -0.2572101957    0.6146948343
C        2.6560705537   -1.7998081368    0.5115067563
C        0.7428149944   -0.5128681181    1.9954628263
C        2.5193273185   -2.0137608862    1.8917919320
C        1.8039498565   -0.9090017770   -0.1557662292
C        2.0105067482   -0.6317080283   -1.6332822940
C        1.4851939846   -1.5925130850    4.0609640616
N        1.5738349497   -1.3785185573    2.6084789303
N        0.8853041779   -0.5576089552   -2.3938100279
O        3.1075352104   -0.4939061063   -2.1356288206
H        0.1682546113    0.4683483253    0.1533821703
H        3.4415377565   -2.3022581271   -0.0509963913
H       -0.0106247104    0.0135723128    2.5758119196
H        3.2046201396   -2.7009144659    2.3817142667
H        0.8937869098   -2.4874374441    4.2806127291
H        2.4858744869   -1.7102390499    4.4897058248
H        1.0183369433   -0.7304837211    4.5479685226
H        1.0362077563   -0.4094144965   -3.3877160880
H       -0.0255217809   -0.8119849700   -2.0339762275
19   

C        0.8162636401   -0.3239022777    0.6050655645
C        2.7122857819   -1.7733869729    0.5541001942
C        0.7240916496   -0.5542583720    1.9905881756
C        2.5726982296   -1.9653546102    1.9368492931
C        1.8253951989   -0.9403409831   -0.1446399812
C        2.0329836365   -0.7216045589   -1.6332575127
C        1.4914820680   -1.5578050205    4.0852096394
N        1.5895474531   -1.3642147141    2.6304987166
N        0.9233674615   -0.4361053863   -2.3689174360
O        3.1237214913   -0.7790651713   -2.1653113075
H        0.1154706866    0.3567662739    0.1292870923
H        3.5238016500   -2.2554566200    0.0104979746
H       -0.0617144035   -0.0557820847    2.5524060117
H        3.2845846941   -2.6099388504    2.4463179006
H        0.9158658947   -2.4610618069    4.3128109476
H        2.4900458264   -1.6502464164    4.5248500802
H        1.0037090155   -0.6976796299    4.5547253369
H        1.0819622848   -0.3166566055   -3.3655697090
H       -0.0120085309   -0.5361420918   -1.9980278985
19   

C        0.7842931523   -0.3873911720    0.5957805507
C        2.7516941633   -1.7346458961    0.5773554107
C        0.7058242851   -0.5883275893    1.9870601924
C        2.6241921301   -1.9006094286    1.9642187086
C        1.8227128695   -0.9666135046   -0.1441015965
C        2.0156619535   -0.8104768409   -1.6451238941
C        1.5184551593   -1.5090507791    4.1026471060
N        1.6117805383   -1.3362765219    2.6450299664
N        0.9601305889   -0.3259944160   -2.3572048916
O        3.0615684409   -1.0667786043   -2.2086765044
H        0.0398202346    0.2382237950    0.1127946088
H        3.5831449233   -2.1963868611    0.0460395500
H       -0.1065785464   -0.1214871758    2.5381113996
H        3.3672468599   -2.4983562026    2.4861404577
H        0.9735623426   -2.4277141412    4.3441340951
H        2.5188571478   -1.5613380368    4.5446087057
H        1.0011945384   -0.6584741872    4.5576937094
H        1.1172940847   -0.2400084142   -3.3575627217
H        0.0339904552   -0.2265736216   -1.9660221105
19   

C        0.7330929598   -0.5094652467    0.5954289073
C        2.8006319705   -1.6905355384    0.6002610666
C        0.6804948765   -0.6719502269    1.9930510212
C        2.6974801032   -1.8231400233    1.9925297091
C        1.8080301234   -1.0241175393   -0.1405108236
C        1.9867015621   -0.9252420445   -1.6510636572
C        1.5732274947   -1.4671382378    4.1272175277
N        1.6480829190   -1.3223397772    2.6655149814
N        1.0220090917   -0.2819136544   -2.3565450078
O        2.9423678386   -1.3969253130   -2.2359876397
H       -0.0756028434    0.0201252726    0.1023187051
H        3.6606322078   -2.1092707841    0.0787416994
H       -0.1670791926   -0.2618013075    2.5361644426
H        3.4883320735   -2.3463176067    2.5242020267
H        1.1022162475   -2.4195956877    4.3923530751
H        2.5760230208   -1.4317297634    4.5653231743
H        0.9924834118   -0.6491513235    4.5650010872
H        1.1764209467   -0.2361274750   -3.3599326957
H        0.2085950347    0.1414301647   -1.9341629420
19   

C        0.6829829777   -0.5837034880    0.5767173092
C        2.8351350980   -1.6105476001    0.5913239884
C        0.6522497617   -0.7165807649    1.9779919041
C        2.7502587309   -1.7171860431    1.9872575997
C        1.7898761614   -1.0371292503   -0.1516997739
C        1.9236473073   -0.9700900334   -1.6656918770
C        1.6097748417   -1.4053524188    4.1208051399
N        1.6702808006   -1.2786136794    2.6567671713
N        1.0517816957   -0.1596717989   -2.3282856543
O        2.7390574349   -1.6219512945   -2.2881047549
H       -0.1728209900   -0.1456128485    0.0721974230
H        3.7141948004   -1.9841245160    0.0673955867
H       -0.2225117979   -0.3634407163    2.5180775009
H        3.5783453975   -2.1726511070    2.5245156665
H        1.1904594284   -2.3773082138    4.4018099648
H        2.6111919860   -1.3120050689    4.5533674755
H        0.9888670491   -0.6125510061    4.5496789792
H        1.1708658025   -0.1307729466   -3.3371437581
H        0.4502710354    0.5009448286   -1.8567056952
19   

C        0.6472606038   -0.6382504817    0.5718442822
C        2.8519704006   -1.5536308239    0.5829934164
C        0.6363659469   -0.7441681385    1.9753628509
C        2.7847324929   -1.6364813738    1.9819092077
C        1.7707157047   -1.0494969952   -0.1556935997
C        1.8566075560   -1.0280604318   -1.6719123050
C        1.6436000879   -1.3525829923    4.1195427172
N        1.6887770995   -1.2407559114    2.6537367600
N        1.1315717341   -0.0691699481   -2.3111899880
O        2.5194586808   -1.8223864546   -2.3089262854
H       -0.2338844312   -0.2633890656    0.0582236071
H        3.7383323983   -1.9000316231    0.0530749360
H       -0.2519993314   -0.4291277780    2.5168257287
H        3.6377979783   -2.0423305975    2.5198478111
H        1.2817652533   -2.3434810084    4.4142432926
H        2.6402511632   -1.1973063831    4.5451323925
H        0.9800988399   -0.5919098243    4.5427282053
H        1.2220974059   -0.0589523042   -3.3233350560
H        0.7003043034    0.7013460690   -1.8184505874
19   

C        0.6014738179   -0.6848093845    0.5733265652
C        2.8500413268   -1.4941341816    0.5645163567
C        0.6125421160   -0.7758336556    1.9774845660
C        2.8026140364   -1.5651232046    1.9653709787
C        1.7363018109   -1.0493131697   -0.1613831732
C        1.7729551764   -1.0606300802   -1.6783900612
C        1.6710743017   -1.3212812261    4.1135985918
N        1.6961954310   -1.2152051985    2.6468713325
N        1.2317293030    0.0176403587   -2.3048139555
O        2.2660682652   -1.9648489670   -2.3218938786
H       -0.2998984977   -0.3606648280    0.0590202434
H        3.7412987657   -1.8105945766    0.0247603133
H       -0.2841806126   -0.4996362327    2.5263385652
H        3.6786933115   -1.9274395136    2.4973596160
H        1.3658832967   -2.3287330343    4.4163623431
H        2.6617321729   -1.1102449718    4.5289584739
H        0.9709334553   -0.5957878994    4.5394964579
H        1.2964350446    0.0144409094   -3.3189004030
H        0.9462312067    0.8468349418   -1.8001239666
19   

C        0.5489804597   -0.7298392462    0.5887153710
C        2.8335904372   -1.4380516170    0.5512380869
C        0.5846540665   -0.8079420869    1.9928305097
C        2.8087865933   -1.4987638012    1.9536304506
C        1.6894155486   -1.0497851109   -0.1579476132
C        1.6767117763   -1.0897704077   -1.6743369146
C        1.6957575410   -1.2945613979    4.1160857847
N        1.6969767926   -1.1933863303    2.6487904520
N        1.3504569205    0.0655163354   -2.3068449263
O        1.9675409213   -2.0812125379   -2.3116414279
H       -0.3712636380   -0.4515481347    0.0802971778
H        3.7281382859   -1.7238719316    0.0006555526
H       -0.3160760066   -0.5685416534    2.5523073070
H        3.7065623593   -1.8190859779    2.4762982896
H        1.4519957926   -2.3165910080    4.4257608282
H        2.6775264721   -1.0255529026    4.5187597290
H        0.9599058266   -0.6091130299    4.5480550870
H        1.3831993835    0.0400669669   -3.3220514221
H        1.2120473577    0.9338109012   -1.8053195911
19   

C        0.5131956429   -0.7853518027    0.5900599198
C        2.8302780746   -1.3853872723    0.5327211641
C        0.5644869393   -0.8585152783    1.9934842558
C        2.8191404022   -1.4438655951    1.9358923498
C        1.6620386824   -1.0535442097   -0.1651374088
C        1.6181017617   -1.1039379735   -1.6807218320
C        1.7139057094   -1.2910746586    4.1072941866
N        1.6994732341   -1.1901723767    2.6400386297
N        1.5313937130    0.0847768965   -2.3243078096
O        1.6809038751   -2.1406722211   -2.3084474093
H       -0.4222189933   -0.5520290934    0.0863177161
H        3.7327556256   -1.6313412734   -0.0234688039
H       -0.3421491773   -0.6610184994    2.5597551585
H        3.7345755274   -1.7210616401    2.4525240958
H        1.5071410725   -2.3207189671    4.4187258840
H        2.6892943212   -0.9894015952    4.5021484513
H        0.9589318830   -0.6306609856    4.5452737761
H        1.5298085780    0.0445187923   -3.3394766246
H        1.5409840281    0.9680459278   -1.8295095296
19   

C        0.4518254305   -0.8326955226    0.6055454010
C        2.7943037704   -1.3284987933    0.5126938088
C        0.5252275551   -0.9112457617    2.0072485635
C        2.8035472699   -1.3947642145    1.9160166522
C        1.6020626343   -1.0457351341   -0.1658178352
C        1.5232931668   -1.0813211708   -1.6804713514
C        1.7210375386   -1.3017054512    4.1028205024
N        1.6827564548   -1.1952108720    2.6363751949
N        1.6867989800    0.0963651955   -2.3278136760
O        1.3262390842   -2.1025681341   -2.3054758296
H       -0.4988126756   -0.6383634190    0.1134875559
H        3.7005185398   -1.5289251796   -0.0550318683
H       -0.3819294834   -0.7573119718    2.5860661973
H        3.7368136788   -1.6327514765    2.4201376671
H        1.5563281775   -2.3394984283    4.4122471388
H        2.6899067011   -0.9660318241    4.4860673118
H        0.9483900782   -0.6711525207    4.5538641699
H        1.6363651829    0.0615233597   -3.3418912271
H        1.8620949881    0.9633648041   -1.8350347367
19   

C        0.3931385634   -0.8818916160    0.6274668863
C        2.7553963201   -1.2749443930    0.4986521610
C        0.4887952313   -0.9675928259    2.0269674170
C        2.7853265791   -1.3507251408    1.9016700781
C        1.5418869119   -1.0388317979   -0.1599579249
C        1.4265773757   -1.0511547745   -1.6722924499
C        1.7287498657   -1.3163180101    4.1034930079
N        1.6662826676   -1.2049446510    2.6382312753
N        1.8338877066    0.0633290987   -2.3254812437
O        0.9721875404   -1.9919006302   -2.2897034366
H       -0.5706605302   -0.7250896858    0.1471767552
H        3.6628387555   -1.4290440525   -0.0810691991
H       -0.4165860953   -0.8569240171    2.6183259464
H        3.7343430556   -1.5502716355    2.3928959291
H        1.5975768371   -2.3594844612    4.4107840648
H        2.6931986856   -0.9551790457    4.4745121902
H        0.9454832079   -0.7090635857    4.5680822327
H        1.7326843894    0.0521282705   -3.3363114699
H        2.1751851960    0.8813572628   -1.8361060883
19   

C        0.3518106705   -0.9386928560    0.6377288666
C        2.7294927264   -1.2271583678    0.4856424247
C        0.4621143271   -1.0373680636    2.0349087377
C        2.7727343025   -1.3184809298    1.8877853197
C        1.5007851523   -1.0331784360   -0.1593680248
C        1.3553691648   -1.0125911170   -1.6685540578
C        1.7329283050   -1.3482869607    4.0981893232
N        1.6539445282   -1.2292487193    2.6343213958
N        1.9901232788   -0.0074403715   -2.3222986621
O        0.6833640536   -1.8182175057   -2.2792356862
H       -0.6208568371   -0.8168693501    0.1643997498
H        3.6390983149   -1.3335344923   -0.1010384531
H       -0.4428082479   -0.9725124183    2.6337323713
H        3.7329313092   -1.4814021483    2.3707236802
H        1.6372131261   -2.3968983258    4.3998133077
H        2.6887293252   -0.9592725999    4.4633739623
H        0.9353469490   -0.7684013161    4.5733790374
H        1.8573144109    0.0225252085   -3.3291534735
H        2.4777667043    0.7315982592   -1.8316166360
19   

C        0.3184063248   -0.9777770014    0.6439296675
C        2.7064079943   -1.1625797332    0.4761780855
C        0.4393472778   -1.0984710275    2.0381614107
C        2.7592322767   -1.2786897653    1.8764916332
C        1.4666209824   -1.0034574849   -0.1592368842
C        1.2932275498   -0.9452966304   -1.6647278276
C        1.7319581162   -1.3849451941    4.0908578208
N        1.6411439197   -1.2493788644    2.6291038095
N        2.1196299037   -0.0970819657   -2.3325405549
O        0.4565235054   -1.5917230027   -2.2621945592
H       -0.6607861833   -0.8859678153    0.1764306088
H        3.6184054503   -1.2214489374   -0.1129629402
H       -0.4649382491   -1.0823553687    2.6412387007
H        3.7272568827   -1.4097926374    2.3534348325
H        1.6663319556   -2.4393524545    4.3798703636
H        2.6789752176   -0.9747533951    4.4557735577
H        0.9220762073   -0.8322121121    4.5775733315
H        1.9708096560   -0.0350683902   -3.3357819800
H        2.7320339214    0.5489219337   -1.8512203960
19   

C        0.2906643052   -1.0117295798    0.6577485480
C        2.6843243613   -1.0868660325    0.4768077627
C        0.4232363787   -1.1556901529    2.0484033478
C        2.7477616621   -1.2292717654    1.8745383111
C        1.4345688903   -0.9654566919   -0.1504500218
C        1.2291305677   -0.8766067200   -1.6517648908
C        1.7361025088   -1.4195801162    4.0907232270
N        1.6330057649   -1.2638910323    2.6317866850
N        2.1941727446   -0.2254026256   -2.3577727673
O        0.2713104807   -1.3601146587   -2.2220794533
H       -0.6951273728   -0.9505092733    0.1984441038
H        3.5982961514   -1.0965138257   -0.1111775525
H       -0.4783905635   -1.1909007458    2.6546508513
H        3.7223558533   -1.3269940232    2.3460567757
H        1.7138703709   -2.4802178012    4.3628996848
H        2.6675754301   -0.9775894095    4.4585171201
H        0.9071823104   -0.9072693706    4.5895406470
H        2.0292430087   -0.1534090142   -3.3579080215
H        2.9199843739    0.3162970060   -1.9076004150
19   

C        0.2747098674   -1.0570422231    0.6535228051
C        2.6701398661   -1.0022480143    0.4836027985
C        0.4088652899   -1.2262479666    2.0409174216
C        2.7340872207   -1.1737362195    1.8782916070
C        1.4172333481   -0.9317593144   -0.1484124152
C        1.1919696050   -0.8068594927   -1.6473013411
C        1.7234930651   -1.4626962592    4.0846821400
N        1.6196517922   -1.2842693307    2.6283913000
N        2.2464915644   -0.3744029988   -2.3936322456
O        0.1471467899   -1.1066261711   -2.1916951899
H       -0.7137413139   -1.0305783987    0.1962029068
H        3.5899313763   -0.9471488255   -0.0911448343
H       -0.4925181542   -1.3199597705    2.6413002160
H        3.7100432980   -1.2289278462    2.3538372306
H        1.7223958796   -2.5279513995    4.3390187130
H        2.6453697012   -1.0087247032    4.4619004798
H        0.8838471636   -0.9748860584    4.5901761430
H        2.0667839506   -0.2940677147   -3.3906282504
H        3.0829206430    0.0160945076   -1.9824979001
19   

C        0.2849806638   -1.1327645467    0.6470202411
C        2.6716298550   -0.8948838337    0.4870403992
C        0.4307059540   -1.3421778053    2.0275191675
C        2.7458165229   -1.1114352608    1.8752454903
C        1.4177264141   -0.9065802578   -0.1474163771
C        1.1587426288   -0.6842814193   -1.6329146483
C        1.7549252788   -1.5413044502    4.0682274672
N        1.6419744373   -1.3335497517    2.6164600828
N        2.2353888489   -0.4622999018   -2.4305900043
O        0.0460150018   -0.6881895133   -2.1234790669
H       -0.7064341756   -1.1458639275    0.1954725733
H        3.5847475779   -0.7194739874   -0.0726869448
H       -0.4625931010   -1.5154293482    2.6223040186
H        3.7212842187   -1.0988896229    2.3547723827
H        1.8057844354   -2.6108757644    4.2978151626
H        2.6536142707   -1.0519888008    4.4570347674
H        0.8928985693   -1.1060312826    4.5840907010
H        2.0242875595   -0.3187962168   -3.4142234257
H        3.1881610584   -0.4663357216   -2.0965231849
