24

C      0.58217    0.89394    0.09032
C      0.27197   -0.28115   -0.50729
C      1.17858    2.10905   -0.48238
C     -0.16128   -0.85657    1.80699
C     -0.49215   -1.26152    0.36101
C     -1.99891   -1.18781    0.04296
C      3.65903    3.20974   -2.05362
C      2.17887    3.10844   -2.39562
O      1.29550    3.15069    0.14770
O      0.49661   -0.57495   -1.81632
O      1.56870    1.95208   -1.76796
S      0.08750    0.97071    1.80997
H     -0.96067   -1.11387    2.50518
H      0.76800   -1.33074    2.13553
H     -0.13694   -2.28623    0.18101
H     -2.38684   -0.19352    0.28255
H     -2.55059   -1.92837    0.63084
H     -2.19494   -1.38330   -1.01652
H      3.79808    3.39019   -0.98508
H      4.18349    2.29027   -2.33132
H      4.10821    4.04314   -2.60539
H      2.02748    2.94007   -3.46404
H      1.63895    4.00703   -2.08942
H      0.23862   -1.49742   -1.97282
