29   

C        3.0827047960   -2.8217954023    0.6819693734
C        2.4556897859   -1.6310136480    0.3063226257
C        2.8673767895   -3.3459204471    1.9592477293
C        1.6121817771   -0.9684451172    1.2051937576
C        2.0308431360   -2.6772691578    2.8600217109
C       -0.1577460082   -4.4163160367    5.7023317891
C       -0.0377635469   -5.6847755908    5.1287154623
C       -1.3789157151   -3.6781671717    3.7571551070
C        1.3909331718   -1.4815425091    2.4939293585
C       -0.8177607764   -3.3955089316    5.0108850423
C       -0.5735518872   -5.9593800220    3.8638645531
C       -1.2571981601   -4.9434946975    3.1715089611
C        0.5091501165   -0.7873169015    3.4275816395
C        0.3878060838   -0.8933446838    4.8032310948
O       -2.2147204532   -1.0958467480    5.3467309738
O       -0.6358620405   -1.7070655578    7.1429247532
S       -0.9261336337   -1.7117408648    5.7003690675
Cl      -0.3814036290   -7.5553170597    3.1717065911
Cl      -1.9480786579   -5.2292143524    1.5886832392
H        3.7341604337   -3.3369850466   -0.0152440974
H        2.6234370739   -1.2193620591   -0.6826519293
H        3.3486990292   -4.2719188625    2.2528751782
H        1.1351022945   -0.0447425262    0.8964682032
H        1.8740042827   -3.0979795865    3.8466444858
H        0.2668471010   -4.2216927339    6.6844562637
H        0.4794980224   -6.4709221755    5.6661328150
H       -1.9104918987   -2.9003095055    3.2159660001
H       -0.1567220166   -0.0574479198    2.9776260604
H        1.1756094787   -0.5074066605    5.4304770595
29   

C        2.8590987157   -3.1018710621    0.8812189596
C        2.1717215926   -1.9876132246    0.3940684560
C        2.8006766924   -3.4115595501    2.2421171414
C        1.4214275679   -1.1898077716    1.2652013379
C        2.0565930382   -2.6081295748    3.1130893687
C       -0.0688329907   -4.3959113502    5.5514002979
C        0.1165864781   -5.6109790019    4.8865663192
C       -1.2398885499   -3.5466504290    3.6210022953
C        1.3501342919   -1.4909951026    2.6357523453
C       -0.7338047095   -3.3440528547    4.9132752533
C       -0.3570744605   -5.8005201206    3.5818460700
C       -1.0493380172   -4.7559335900    2.9432814699
C        0.5415697750   -0.6668667387    3.5329816962
C        0.3628656861   -0.7591282830    4.8918645275
O       -2.2272563111   -1.1359438361    5.4094051133
O       -0.6265093174   -1.8002067926    7.1584496400
S       -0.9112073709   -1.7173103522    5.7170195953
Cl      -0.0762978206   -7.3270234606    2.7733971209
Cl      -1.6611614394   -4.9340067232    1.3129148326
H        3.4361484915   -3.7235044765    0.2055814081
H        2.2177126481   -1.7422153283   -0.6610802152
H        3.3314655986   -4.2762487904    2.6239586050
H        0.8911584323   -0.3322841624    0.8658584551
H        2.0251473872   -2.8634922241    4.1657685132
H        0.3117834418   -4.2653245628    6.5616816414
H        0.6393450647   -6.4205058856    5.3821269572
H       -1.7747153087   -2.7452628244    3.1191705777
H        0.0258663471    0.1667517369    3.0667190357
H        0.9931130867   -0.1870352942    5.5544735805
29   

C        2.7120401108   -3.3434095482    1.1798151089
C        1.8927356924   -2.3836178656    0.5806423763
C        2.8500416449   -3.3665600514    2.5695487702
C        1.2056749632   -1.4550905440    1.3707145337
C        2.1641055637   -2.4362440597    3.3579078766
C        0.0649038770   -4.3430077067    5.2749184335
C        0.2755049656   -5.4850224577    4.4977030164
C       -1.2184138890   -3.3827356593    3.4726389661
C        1.3233561206   -1.4752888117    2.7703028578
C       -0.6666424002   -3.2694202428    4.7570597058
C       -0.2374090114   -5.5786690538    3.1975283773
C       -1.0001204014   -4.5158448458    2.6811916781
C        0.5569883417   -0.5315974344    3.5915111066
C        0.3097579057   -0.6052979790    4.9287815607
O       -2.2253326886   -1.1870362039    5.5220834490
O       -0.5132978909   -1.9181662193    7.1198084306
S       -0.8679583327   -1.7244330323    5.7045950168
Cl       0.0841319744   -7.0092535765    2.2423619806
Cl      -1.6615977401   -4.5743660031    1.0616110053
H        3.2391383415   -4.0672968396    0.5682613992
H        1.7850021914   -2.3621163165   -0.4980364604
H        3.4863590326   -4.1084603469    3.0382937623
H        0.5665365713   -0.7245980968    0.8872352301
H        2.2813341948   -2.4697996079    4.4351244292
H        0.4803361992   -4.2839102450    6.2779711016
H        0.8518492392   -6.3097915912    4.8994519123
H       -1.8061069457   -2.5654814721    3.0648741118
H        0.1763077032    0.3500567658    3.0856378820
H        0.7146248620    0.1417790529    5.5935916444
29   

C        2.6383024357   -3.4113014424    1.2928384996
C        1.8111923362   -2.4788512074    0.6619214783
C        2.8051180396   -3.3638815382    2.6789177905
C        1.1445415455   -1.5075736495    1.4172645136
C        2.1382380849   -2.3917111948    3.4325751722
C        0.0749144256   -4.3635853501    5.1654990321
C        0.2886637261   -5.4891618120    4.3660506745
C       -1.2221364263   -3.3755118247    3.3883748402
C        1.2882190430   -1.4597054698    2.8135285382
C       -0.6651233829   -3.2838763210    4.6721010660
C       -0.2293487174   -5.5605700590    3.0667657871
C       -1.0002515692   -4.4921682483    2.5742254069
C        0.5491190935   -0.4630326373    3.6015159598
C        0.1777163589   -0.5370859577    4.9009296734
O       -2.2813189533   -1.3051955837    5.5729203258
O       -0.4672475324   -1.9894260830    7.0582289902
S       -0.8888016516   -1.7705383933    5.6650201126
Cl       0.0950906776   -6.9714568429    2.0837322274
Cl      -1.6694889699   -4.5246742599    0.9571750391
H        3.1496868508   -4.1681454666    0.7084517776
H        1.6819092127   -2.5115532282   -0.4141089715
H        3.4489382040   -4.0832848155    3.1718091553
H        0.4999537134   -0.7976231251    0.9109420882
H        2.2775362551   -2.3676868132    4.5076464506
H        0.4922226600   -4.3230421053    6.1687097646
H        0.8703938683   -6.3184226840    4.7503780842
H       -1.8184246838   -2.5550919298    3.0003653289
H        0.3117617273    0.4650482634    3.0911467322
H        0.3754742123    0.3024208394    5.5495014619
29   

C        3.1676536546   -3.5334469864    1.9163651742
C        2.1351497795   -3.0602615975    1.1019275232
C        3.3175305209   -3.0282862969    3.2105793983
C        1.2538698649   -2.0843759553    1.5812712023
C        2.4326608864   -2.0566371769    3.6904284119
C        0.1842508892   -4.2671253619    4.4960807524
C        0.0636589527   -5.2718863764    3.5353400745
C       -1.7897346396   -3.2031792231    3.6097796059
C        1.3863902772   -1.5765131221    2.8832335265
C       -0.7305673621   -3.2087663930    4.5275260324
C       -0.9714945275   -5.2471563352    2.5941902269
C       -1.9149866801   -4.2036175949    2.6368364620
C        0.4412454624   -0.5694488990    3.3935683275
C        0.0186328725   -0.4506164304    4.6670491825
O       -1.7868688439   -1.4782326241    6.3419819635
O        0.5429034211   -2.1440258585    6.6846085508
S       -0.5093428163   -1.8299401467    5.7032337407
Cl      -1.0656385524   -6.5071853697    1.3833770903
Cl      -3.2294614041   -4.1239156745    1.4840714256
H        3.8518792356   -4.2879167403    1.5442484946
H        2.0152329686   -3.4510009451    0.0976551250
H        4.1200713889   -3.3872624760    3.8452908321
H        0.4535548140   -1.7334801337    0.9392848279
H        2.5618479763   -1.6742691216    4.6983316835
H        1.0067311445   -4.2957333205    5.2064227998
H        0.7894562494   -6.0757932629    3.5080159117
H       -2.5197418621   -2.3994793624    3.6348185867
H        0.0786711221    0.1633539296    2.6798959188
H       -0.2215898816    0.5206649124    5.0713898220
29   

C        3.1551142717   -3.5512164727    1.9809260727
C        2.1284418762   -3.0786012951    1.1586943702
C        3.3188445499   -3.0182537457    3.2623931557
C        1.2672622366   -2.0753397379    1.6175737565
C        2.4533986585   -2.0195486275    3.7218779274
C        0.1933152990   -4.2720047398    4.4212801323
C        0.0500201963   -5.2761053527    3.4631443632
C       -1.7967686420   -3.2031869173    3.5784981577
C        1.4135482124   -1.5401628956    2.9068730432
C       -0.7192070431   -3.2124674240    4.4743682328
C       -1.0055595679   -5.2492260891    2.5451853952
C       -1.9451861891   -4.2031688792    2.6081452851
C        0.4914195913   -0.4965766593    3.3940130478
C       -0.0667401049   -0.4280106557    4.6129763685
O       -1.7228731447   -1.5482879200    6.3760139817
O        0.6447350651   -2.1316463099    6.5668174275
S       -0.4748764917   -1.8412608197    5.6546260127
Cl      -1.1298653086   -6.5100413782    1.3378925827
Cl      -3.2846551711   -4.1209198662    1.4846979988
H        3.8242430621   -4.3265509404    1.6246083812
H        1.9975633215   -3.4905652742    0.1643248503
H        4.1169859220   -3.3762602772    3.9031956061
H        0.4714698535   -1.7235993939    0.9704255434
H        2.5929338918   -1.6145812916    4.7195861016
H        1.0308193709   -4.3028970392    5.1137466020
H        0.7733880757   -6.0815192827    3.4203939574
H       -2.5245546003   -2.3982636171    3.6195210364
H        0.2407927509    0.2911452233    2.6908099536
H       -0.4494956314    0.5116044759    4.9809162554
29   

C        3.1275707677   -3.5690435058    2.0181378372
C        2.1015581967   -3.0810758543    1.2039922138
C        3.3176066410   -3.0296258920    3.2934466303
C        1.2679283836   -2.0557070426    1.6647009980
C        2.4790436563   -2.0088877184    3.7547764827
C        0.2037224409   -4.2808632244    4.4061154285
C        0.0622470483   -5.2909257772    3.4539555255
C       -1.7950326398   -3.2273254408    3.5650714198
C        1.4412729649   -1.5138681593    2.9476182170
C       -0.7149044473   -3.2266637347    4.4578237098
C       -0.9970597312   -5.2748656075    2.5400535812
C       -1.9417387015   -4.2332615957    2.6006267367
C        0.5488647022   -0.4412576017    3.4356859218
C       -0.1477296657   -0.4286973687    4.5801756972
O       -1.7123648303   -1.5977882041    6.3909870918
O        0.6770388925   -2.1087508145    6.5122639182
S       -0.4769931785   -1.8506471920    5.6335721607
Cl      -1.1197412503   -6.5434324468    1.3407299703
Cl      -3.2859648268   -4.1642988690    1.4819357539
H        3.7756169810   -4.3613886581    1.6603104498
H        1.9497938937   -3.4979599991    0.2146531150
H        4.1151121047   -3.3997922792    3.9280795125
H        0.4723697833   -1.6907497569    1.0245972971
H        2.6371957358   -1.5986852275    4.7475633800
H        1.0439192010   -4.3033930710    5.0955974174
H        0.7897296131   -6.0926869495    3.4129590897
H       -2.5268587713   -2.4260498531    3.6041073227
H        0.4154315922    0.4061033296    2.7708501177
H       -0.6436450731    0.4749334987    4.9001000982
29   

C        1.9929499177   -3.0252088932    0.8731623834
C        1.0931174342   -1.9558454018    0.8726474038
C        2.7099128810   -3.3288154422    2.0337744162
C        0.9060598200   -1.1967819299    2.0332329848
C        2.5258463172   -2.5648005186    3.1917460229
C       -0.2611914751   -3.9911359223    5.4253916222
C        0.1592828778   -5.2871388545    5.1152572752
C       -0.9294668269   -3.6838779081    3.1295101794
C        1.6157291648   -1.4970033359    3.2072990660
C       -0.7924957278   -3.1691194207    4.4270580710
C        0.0484648353   -5.7902071226    3.8127790437
C       -0.5110381146   -4.9802651833    2.8086194949
C        1.4060280251   -0.7056417971    4.4417799888
C        0.2770703249   -0.6177839738    5.1553639018
O       -1.9174146823   -0.8275145003    3.6143769155
O       -2.1290480361   -1.3929740748    5.9856426807
S       -1.2765517802   -1.4461422823    4.7877277856
Cl       0.6084510549   -7.4105950188    3.4612422073
Cl      -0.6806486187   -5.5581483181    1.1647362626
H        2.1322376644   -3.6191957410   -0.0233485031
H        0.5353347681   -1.7155344901   -0.0256361175
H        3.4058061140   -4.1601486503    2.0374957045
H        0.2001035486   -0.3719019186    2.0222304616
H        3.0830221989   -2.8146281948    4.0875901107
H       -0.1653988874   -3.6185476846    6.4415554556
H        0.5815566902   -5.9155653102    5.8902912250
H       -1.3527786093   -3.0623508829    2.3454092824
H        2.2841207973   -0.2118220713    4.8453249371
H        0.2489750297   -0.0137701942    6.0492736026
29   

C        2.0058646890   -3.0173965426    0.8419778492
C        1.0975202276   -1.9562445557    0.8807595057
C        2.7354084264   -3.3488491171    1.9869319059
C        0.9136217438   -1.2341009235    2.0649797299
C        2.5541744743   -2.6220871520    3.1691672916
C       -0.2803926701   -3.9695843667    5.4410530519
C        0.1474825562   -5.2670959036    5.1477148258
C       -0.9390217653   -3.6917459496    3.1385421110
C        1.6336162947   -1.5642902764    3.2254498053
C       -0.8098096220   -3.1612051436    4.4306059942
C        0.0462053714   -5.7851265730    3.8503004216
C       -0.5121516896   -4.9893099853    2.8342865788
C        1.4256990953   -0.8172853644    4.4828525855
C        0.2570139186   -0.5880982184    5.0975551352
O       -1.9577067530   -0.8389871140    3.5931109632
O       -2.1332708257   -1.3617553421    5.9757348301
S       -1.2969987932   -1.4340557103    4.7674585603
Cl       0.6168234467   -7.4061875228    3.5195958897
Cl      -0.6688983954   -5.5856094200    1.1957573393
H        2.1428632847   -3.5826640265   -0.0732561164
H        0.5310570763   -1.6929990008   -0.0056111218
H        3.4390731156   -4.1731749271    1.9595135351
H        0.2028440437   -0.4135237950    2.0812701517
H        3.1216082513   -2.8949356266    4.0517356409
H       -0.1910957776   -3.5848005300    6.4532933051
H        0.5687446774   -5.8848158471    5.9318565986
H       -1.3611681236   -3.0812360902    2.3451797474
H        2.3212954137   -0.4531536421    4.9758542872
H        0.2095907072    0.1021349794    5.9258485990
29   

C        2.0454111269   -3.0038596222    0.8246832840
C        1.1179232576   -1.9605983769    0.8843971404
C        2.7789470590   -3.3465197245    1.9637100597
C        0.9186751995   -1.2678545207    2.0834565388
C        2.5821116478   -2.6495469502    3.1613508838
C       -0.2970623255   -3.9445759578    5.4543965125
C        0.1417097744   -5.2390975817    5.1638133051
C       -0.9605238948   -3.6784278707    3.1517653992
C        1.6419007246   -1.6102842881    3.2391436890
C       -0.8334332763   -3.1430315275    4.4421137299
C        0.0447856565   -5.7607908230    3.8674854288
C       -0.5216151442   -4.9724867620    2.8500802520
C        1.4140846867   -0.9000541771    4.5103590949
C        0.2256777130   -0.5425296280    5.0241797964
O       -2.0413550585   -0.8477052792    3.6165107975
O       -2.1177149193   -1.3336655269    6.0120098081
S       -1.3288064744   -1.4169174453    4.7729807657
Cl       0.6309744896   -7.3768872033    3.5397644852
Cl      -0.6725203889   -5.5731205719    1.2126202921
H        2.1945106968   -3.5462223759   -0.1024379047
H        0.5486897624   -1.6883494604    0.0025205773
H        3.4979658453   -4.1567537051    1.9195940101
H        0.1930932608   -0.4607596653    2.1143055219
H        3.1530024846   -2.9324802644    4.0384739106
H       -0.2103388047   -3.5563294384    6.4656020575
H        0.5687758944   -5.8513871918    5.9490734027
H       -1.3888453562   -3.0737956496    2.3571812146
H        2.2985532611   -0.6430907835    5.0842746018
H        0.1707695951    0.2408670698    5.7644230513
29   

C        2.1004493187   -3.0168033577    0.8191622359
C        1.1511884819   -1.9935923944    0.8806719886
C        2.8271149713   -3.3591166643    1.9626348179
C        0.9235465685   -1.3204645924    2.0857380010
C        2.6015261422   -2.6822713374    3.1667818805
C       -0.3173992553   -3.9387869361    5.4486805506
C        0.1291755704   -5.2253713192    5.1359260334
C       -1.0182686578   -3.6513007824    3.1595536529
C        1.6397857365   -1.6628277964    3.2464335943
C       -0.8752061649   -3.1298664477    4.4538750773
C        0.0191232468   -5.7316868845    3.8345621566
C       -0.5704294628   -4.9368825056    2.8354444387
C        1.3773105948   -0.9788394459    4.5233383938
C        0.1853130969   -0.5072739618    4.9364785143
O       -2.1748749323   -0.8581571768    3.7068379765
O       -2.0681479278   -1.3279579556    6.1051947229
S       -1.3724491886   -1.4097516955    4.8113919302
Cl       0.6184256150   -7.3367783882    3.4778703385
Cl      -0.7375925165   -5.5181464164    1.1926387208
H        2.2717672783   -3.5438062814   -0.1129600519
H        0.5871926617   -1.7220544984   -0.0047701823
H        3.5632013275   -4.1537766837    1.9167893350
H        0.1804260268   -0.5295687946    2.1172269691
H        3.1674224626   -2.9661984784    4.0467847943
H       -0.2192934707   -3.5615987213    6.4631340797
H        0.5735411447   -5.8429841337    5.9073036710
H       -1.4642987352   -3.0412630637    2.3789594019
H        2.2311490276   -0.8112291761    5.1718000207
H        0.1350011001    0.3730694938    5.5585686432
29   

C        2.2159799886   -3.0960853435    0.8618808964
C        1.2201634837   -2.1165848428    0.8824402368
C        2.9349214383   -3.3793487221    2.0261228564
C        0.9388699451   -1.4281542456    2.0673520831
C        2.6543629108   -2.6882170964    3.2104869129
C       -0.2940536241   -3.9445771567    5.4073758421
C        0.1525179167   -5.2094920233    5.0174039752
C       -1.1472635202   -3.5834634804    3.1810130741
C        1.6462131362   -1.7119363057    3.2490636939
C       -0.9270379914   -3.1086886854    4.4819902828
C       -0.0313518693   -5.6672622084    3.7066267115
C       -0.6984062893   -4.8469199506    2.7790856764
C        1.3243839411   -1.0170007913    4.5043598840
C        0.1282838398   -0.4729685229    4.8271813230
O       -2.3860005618   -0.8648602378    3.9773412546
O       -1.8971343543   -1.3594628970    6.3247348221
S       -1.4112127850   -1.4088173065    4.9367836589
Cl       0.5745723384   -7.2440766280    3.2493385850
Cl      -0.9582628203   -5.3679210573    1.1282660131
H        2.4296027525   -3.6344758535   -0.0548627350
H        0.6620558825   -1.8915450660   -0.0195570145
H        3.7080787272   -4.1392260854    2.0116394245
H        0.1606741475   -0.6716044198    2.0670728543
H        3.2155780961   -2.9270434857    4.1067130362
H       -0.1357930567   -3.6033036382    6.4271004483
H        0.6562863045   -5.8467553174    5.7343806373
H       -1.6530836467   -2.9524107849    2.4556212927
H        2.1360055277   -0.8841832344    5.2123527077
H        0.0776242469    0.5152061190    5.2575514931
29   

C        2.6769518390   -3.3423013069    1.2095418642
C        1.4367131878   -2.7072633479    1.1136465963
C        3.4648368803   -3.1557116247    2.3481347210
C        0.9840411213   -1.8921522275    2.1566460741
C        3.0073314739   -2.3449883016    3.3934429909
C       -0.1473046795   -3.9494779766    4.9855039553
C        0.1562916164   -5.1446146398    4.3320079460
C       -1.7287853503   -3.4167032817    3.2438790311
C        1.7560300269   -1.7111318615    3.3170730880
C       -1.0746676563   -3.0604204577    4.4313777317
C       -0.4659172556   -5.4830363976    3.1249723126
C       -1.4286415120   -4.6132585080    2.5794607375
C        1.2673555624   -0.8976570741    4.4350585254
C        0.0007845896   -0.4420834512    4.6481393599
O       -2.6472965867   -0.8558691176    4.7481415567
O       -1.3129640872   -1.5648051846    6.6815700142
S       -1.3825302856   -1.4441575034    5.2166551981
Cl      -0.0303252505   -6.9743862541    2.3196048447
Cl      -2.2405185983   -4.9904766184    1.0758135407
H        3.0269961296   -3.9755222621    0.4017955175
H        0.8223683018   -2.8475388845    0.2312600994
H        4.4307112330   -3.6426682079    2.4223947494
H        0.0209611844   -1.4034694069    2.0621943932
H        3.6298232263   -2.2185249104    4.2722201830
H        0.3543546118   -3.6998266278    5.9168012166
H        0.8921658854   -5.8169378848    4.7567562283
H       -2.4689970873   -2.7470149375    2.8145660560
H        2.0120107264   -0.5756514167    5.1559955600
H       -0.2001959205    0.6177680744    4.6288835840
29   

C        3.0106100437   -3.2112023846    1.1642685656
C        1.6684285449   -2.8281284201    1.1084068385
C        3.7865685199   -2.8578719343    2.2710477278
C        1.1046980366   -2.0933533998    2.1570351032
C        3.2185882863   -2.1300531636    3.3230280747
C       -0.2837915699   -3.9985079037    4.9701363730
C       -0.1003238736   -5.2144147882    4.3105051064
C       -1.9591200252   -3.3868321967    3.3459314807
C        1.8688635228   -1.7415967136    3.2828036226
C       -1.2007498165   -3.0626486119    4.4792520192
C       -0.8324445342   -5.5261972618    3.1592916674
C       -1.7799080590   -4.6043589889    2.6756111513
C        1.2769913305   -1.0028857039    4.3975854594
C       -0.0020855130   -0.5246148487    4.5430945662
O       -2.6424675713   -0.7913247235    4.9279900816
O       -1.1428570813   -1.5483857831    6.7284071273
S       -1.3654795570   -1.4326158144    5.2783610517
Cl      -0.5520607863   -7.0505775376    2.3465873341
Cl      -2.7258152526   -4.9465763724    1.2435778574
H        3.4485165241   -3.7786967459    0.3505343851
H        1.0618545945   -3.0998953029    0.2516983743
H        4.8300765782   -3.1491085439    2.3150471795
H        0.0634004955   -1.8006215417    2.0918683219
H        3.8368558061   -1.8688779415    4.1747702198
H        0.2999712191   -3.7726737820    5.8589016765
H        0.6248559640   -5.9257146195    4.6879876601
H       -2.6910839503   -2.6788615528    2.9663927634
H        1.9466462503   -0.7687157042    5.2190453304
H       -0.2404909202    0.4817948855    4.2367334592
29   

C        3.4365494467   -2.9928040477    1.0959569615
C        2.0396926017   -2.9561520617    1.1021432120
C        4.1498836145   -2.4219759674    2.1532269364
C        1.3587971269   -2.3449648303    2.1608920175
C        3.4670166576   -1.8190224410    3.2157422445
C       -0.4924771362   -4.1049134973    4.9853551010
C       -0.4781484083   -5.3502584704    4.3554559440
C       -2.1911705723   -3.3611434126    3.4421968784
C        2.0632571542   -1.7704198418    3.2319095748
C       -1.3390594603   -3.0920181111    4.5221494381
C       -1.3103760096   -5.6133118271    3.2612302894
C       -2.1821893811   -4.6078716911    2.8023951473
C        1.3546585436   -1.1353721192    4.3402092845
C        0.0527815110   -0.6746322947    4.4313703258
O       -2.5565964277   -0.7083195002    5.0328802076
O       -0.9771579445   -1.5576863622    6.7277626545
S       -1.3104751745   -1.4436780373    5.2988724073
Cl      -1.2485616663   -7.1827871972    2.4891522888
Cl      -3.2480230336   -4.8858735558    1.4422986642
H        3.9649964128   -3.4610328734    0.2728636493
H        1.4818955298   -3.4003223959    0.2852686177
H        5.2339430905   -2.4440206141    2.1491777150
H        0.2751172647   -2.3242902841    2.1487245644
H        4.0373181504   -1.3780799285    4.0259657586
H        0.1622245724   -3.9208016178    5.8336405160
H        0.1884848151   -6.1256847180    4.7145731002
H       -2.8694334561   -2.5905760035    3.0850985955
H        1.9435368648   -0.9851027988    5.2396592381
H       -0.2252298872    0.2108020057    3.8819029377
