14   
Generated by ForceBalance from scan.xyz: Frame 1 of 9
C        0.1493467301   -0.2661148846    1.1734910511
C        1.3790138303   -0.2206966916    3.1764030827
C       -0.6196103806   -1.3605100823    1.6043915635
C        1.4191135404   -0.2844192229    1.7789698340
C        0.3586723076   -1.0753597220    3.6515675102
N       -0.5235145203   -1.7431298982    2.9010766500
O        1.1201560262   -0.2945009390    6.0559088218
O        1.0821746328   -2.8061963199    5.3739960676
S        0.2305202647   -1.3330248512    5.4577596537
Cl       2.8066597308    0.3177675711    0.9045674008
H        0.0635286143    0.0828461784    0.1458849071
H        2.1756409396    0.1381945153    3.8201180207
H       -1.4259439190   -1.7865154799    1.0126666464
H        0.8320274260   -3.3306339578    6.1580775650
14   
Generated by ForceBalance from scan.xyz: Frame 2 of 9
C        0.1877406064   -0.3414081144    1.1123653395
C        1.3751056042   -0.2447444260    3.1703884887
C       -0.6399030909   -1.3474659010    1.6341426829
C        1.4180751840   -0.2217740166    1.7724830712
C        0.3510274515   -1.0648167858    3.6629193517
N       -0.5686507255   -1.6963354164    2.9331144014
O        1.1922057714   -0.3249548425    6.0601727026
O        1.0391904317   -2.8276621203    5.3619350866
S        0.2497556899   -1.3222586075    5.4737819479
Cl       2.7911596496    0.4698523477    0.9450295389
H        0.1001805035   -0.0490514323    0.0691911839
H        2.1639771695    0.1245765633    3.8180138225
H       -1.4552320244   -1.7705488922    1.0518772969
H        0.7928036679   -3.3440721590    6.1525062572
14   
Generated by ForceBalance from scan.xyz: Frame 3 of 9
C        0.2281430481   -0.4248780178    1.0618551938
C        1.3816212812   -0.2550157516    3.1578134598
C       -0.6562211739   -1.3351017651    1.6545248452
C        1.4095317272   -0.1652735502    1.7641887456
C        0.3515498868   -1.0459615743    3.6682906464
N       -0.6064837165   -1.6394420360    2.9614798815
O        1.2690410229   -0.3464495625    6.0549659978
O        1.0108087483   -2.8373832764    5.3448280483
S        0.2793860352   -1.3049693101    5.4823919964
Cl       2.7555617117    0.6017961608    0.9603616593
H        0.1470253629   -0.1854786711    0.0059614858
H        2.1675776739    0.1225815713    3.8043576162
H       -1.4816901495   -1.7564013292    1.0848833311
H        0.7684586154   -3.3478593729    6.1404795404
14   
Generated by ForceBalance from scan.xyz: Frame 4 of 9
C        0.2769469420   -0.5053743540    1.0397121262
C        1.3894470259   -0.2596692865    3.1648440261
C       -0.6670789651   -1.3190634156    1.6738378690
C        1.3961214084   -0.1112323122    1.7778855926
C        0.3480629914   -1.0278083795    3.6811819326
N       -0.6434352839   -1.5785971005    2.9893858454
O        1.3238390052   -0.3823706952    6.0625964973
O        0.9688894261   -2.8546927408    5.3307548188
S        0.2929220706   -1.2993998862    5.4952257557
Cl       2.7103544381    0.7276173801    0.9931919009
H        0.2125135144   -0.3114757095   -0.0259013091
H        2.1699306488    0.1229048349    3.8149798655
H       -1.4989264128   -1.7364193835    1.1105701383
H        0.7219417769   -3.3648638196    6.1251682273
14   
Generated by ForceBalance from scan.xyz: Frame 5 of 9
C        0.3154800606   -0.6011944707    1.0080053538
C        1.4014158348   -0.2659540095    3.1391887366
C       -0.6788258955   -1.3170307092    1.6817955004
C        1.3679341499   -0.0714519604    1.7583590301
C        0.3560748317   -1.0118653137    3.6757957415
N       -0.6703722135   -1.5236286068    3.0059581344
O        1.4119477536   -0.4170354241    6.0384803562
O        0.9352932483   -2.8683226998    5.3038078507
S        0.3304803236   -1.2862124408    5.4903218830
Cl       2.6331504560    0.8364760213    0.9703797949
H        0.2647514389   -0.4582102208   -0.0661785264
H        2.1828667775    0.1302048740    3.7799765215
H       -1.5177692362   -1.7362835966    1.1304020994
H        0.6966089732   -3.3676067028    6.1076365192
14   
Generated by ForceBalance from scan.xyz: Frame 6 of 9
C        0.3639201718   -0.6576457236    0.9963960518
C        1.4056989829   -0.2476127082    3.1324933511
C       -0.6880760788   -1.2803049575    1.6761727196
C        1.3325966994   -0.0023923880    1.7609416467
C        0.3489753984   -0.9787541743    3.6700619923
N       -0.7038389969   -1.4447039316    3.0067271926
O        1.4507183510   -0.4530525972    6.0293222021
O        0.8770682153   -2.8748662063    5.2665895464
S        0.3323817465   -1.2742661537    5.4810958831
Cl       2.5470563903    0.9784507813    0.9802575715
H        0.3391660814   -0.5545122802   -0.0834436827
H        2.1816324245    0.1567109425    3.7747239423
H       -1.5283524429   -1.6961499610    1.1245030142
H        0.6400582720   -3.3730311269    6.0716403174
14   
Generated by ForceBalance from scan.xyz: Frame 7 of 9
C        0.4199709383   -0.7492974073    1.0086797952
C        1.4246554207   -0.2545678032    3.1308335345
C       -0.6896313670   -1.2676936219    1.6896416025
C        1.2982680348    0.0295499316    1.7686007800
C        0.3569353952   -0.9639835795    3.6806523428
N       -0.7237941292   -1.3825748476    3.0267105513
O        1.5105388157   -0.4996891038    6.0279775316
O        0.8371314493   -2.8915476592    5.2536518672
S        0.3548407698   -1.2733563343    5.4880572436
Cl       2.4544070228    1.0702523755    0.9772310971
H        0.4207643493   -0.6877019348   -0.0753184662
H        2.2022167377    0.1608303155    3.7638877626
H       -1.5345464702   -1.6777630341    1.1408440370
H        0.5940141420   -3.3866096182    6.0587880210
14   
Generated by ForceBalance from scan.xyz: Frame 8 of 9
C        0.4721251259   -0.8281979573    1.0277010307
C        1.4450484258   -0.2516240075    3.1211397898
C       -0.6954612042   -1.2454426021    1.6873253312
C        1.2471885582    0.0692995806    1.7733025706
C        0.3628964895   -0.9449115377    3.6775125029
N       -0.7426211938   -1.3172470844    3.0306865174
O        1.5639949904   -0.5537470215    6.0114358766
O        0.7919319917   -2.9090985870    5.2187211528
S        0.3725562822   -1.2768247721    5.4786867625
Cl       2.3302862344    1.1729743203    0.9627239002
H        0.5042135037   -0.8021900402   -0.0584472134
H        2.2228600860    0.1754537303    3.7457309960
H       -1.5434516936   -1.6493549500    1.1393433757
H        0.5473357775   -3.4030510047    6.0240882711
14   
Generated by ForceBalance from scan.xyz: Frame 9 of 9
C        0.5202937269   -0.9102977421    1.0645186316
C        1.4739771089   -0.2508813181    3.1117627310
C       -0.7074796711   -1.2181761010    1.6788573139
C        1.1863422309    0.0962004468    1.7853853695
C        0.3670639277   -0.9228430153    3.6739515703
N       -0.7610732466   -1.2478286930    3.0316103281
O        1.5969772645   -0.5940055958    5.9990323064
O        0.7535033802   -2.9173912986    5.1868552939
S        0.3805675775   -1.2763857457    5.4681397410
Cl       2.1837309288    1.2546494511    0.9388161278
H        0.5953116311   -0.9163734349   -0.0215640898
H        2.2510184885    0.1920321049    3.7257160613
H       -1.5595105063   -1.6137538159    1.1320100249
H        0.5075482554   -3.4121459433    5.9913233035
