43

C      5.80769   -0.34516    4.81151
C      5.21634    0.14223    3.63620
C      3.96926   -1.89758    5.07350
C      5.19450   -1.36462    5.53508
C      4.01144   -0.38237    3.17119
C      3.37292   -1.42669    3.90596
C      0.44704   -3.99355    2.13337
C      1.34989   -5.07027    2.76262
C      0.15174   -3.06186    3.31744
C      2.20434   -4.31199    3.81400
C      1.49724   -2.94840    4.03993
C      7.26989   -1.61571    7.01833
C      3.95481    1.05460    1.26519
C      4.94373   -1.33371    7.99959
C      5.77403   -1.90265    6.83350
N      5.23581   -2.15258    9.25360
O      5.53995   -3.32764    6.97675
O      2.21041   -1.87127    3.38373
O      3.36813    0.01311    2.05068
H      6.74969    0.08785    5.12924
H      5.71483    0.93244    3.08748
H      3.50371   -2.70858    5.62030
H      0.98820   -3.44299    1.35659
H     -0.45743   -4.40895    1.68112
H      0.73063   -5.82505    3.25918
H      1.96705   -5.59198    2.02650
H     -0.23469   -2.07883    3.03812
H     -0.57043   -3.53330    3.99477
H      2.29148   -4.87512    4.74923
H      3.21963   -4.13685    3.44773
H      1.37869   -2.68565    5.09760
H      7.66122   -2.13158    7.90225
H      7.47500   -0.54738    7.12088
H      7.83287   -1.98723    6.15898
H      3.27611    1.20604    0.42649
H      4.94069    0.75762    0.88987
H      4.03851    1.98323    1.84119
H      5.17056   -0.28813    8.20641
H      3.87908   -1.45337    7.80100
H      6.15941   -1.94070    9.64576
H      5.23949   -3.14487    8.95977
H      4.53658   -2.01307    9.99124
H      5.80375   -3.77934    6.15718
