28   

C       -3.3211638798    4.3777546934    2.2439208965
C       -3.7904853821    3.1659425052    2.7566962454
C       -2.3300163916    4.3765762779    1.2590289310
C       -3.2713851746    1.9557803646    2.2825850876
C       -1.8018103610    3.1653662063    0.7966524201
C       -2.2641114281    1.9396938590    1.3025335613
C       -0.5315446173    0.3972595081    0.1308222595
C        0.5550295850   -0.2208898975    0.8478399132
C       -0.5199770938    0.0341626088   -1.3278069225
C       -1.7052720252    0.6891145939    0.8350892389
C        1.9100394650   -0.2984215977   -1.1906233059
C        0.6746871992   -0.9309495860   -3.2783728743
N        1.6950041313   -0.6095962414    0.2009471276
N        0.6614765538   -0.3978196006   -1.9208511914
O        0.4841733761   -0.4676256669    2.0390441299
O       -1.5565201753    0.0850691566   -1.9733745417
H       -3.7247866103    5.3154576193    2.6090920686
H       -4.5548753527    3.1625037859    3.5254642680
H       -1.9694149101    5.3145925666    0.8526196710
H       -3.6443615471    1.0259781476    2.6969654383
H       -1.0348588178    3.1790849931    0.0308061046
H       -2.0794451778   -0.1564223033    1.4029035508
H        2.3198315640    0.7129930250   -1.2857528869
H        2.6364312318   -1.0050796672   -1.6058348771
H        1.5986028525   -0.6445100533   -3.7906210116
H       -0.1602346163   -0.5409232818   -3.8693654168
H        0.6062351486   -2.0230869488   -3.2516278016
H        2.3583470286   -1.1332863053    0.7589275385
28   

C       -3.4678230573    4.3769209410    2.0371543481
C       -3.8199585018    3.2241959921    2.7433772950
C       -2.5585114022    4.2915341660    0.9797336001
C       -3.2647049469    1.9887815975    2.3910623773
C       -1.9924354483    3.0574325899    0.6389130842
C       -2.3346324603    1.8905729616    1.3412385514
C       -0.5676688164    0.3065544586    0.3024639628
C        0.4427284966   -0.4969295490    0.9442993002
C       -0.5892822519    0.1153714712   -1.1833444538
C       -1.7301788891    0.6159589429    0.9992064579
C        1.7743970669   -0.5733496836   -1.1151739268
C        0.4921786245   -0.6966802392   -3.2628267246
N        1.5216901191   -0.9664455550    0.2490681933
N        0.5312299610   -0.3854229977   -1.8378449389
O        0.3622573003   -0.8205220957    2.1165851046
O       -1.5894754237    0.4143956389   -1.8197989041
H       -3.8999618197    5.3338080611    2.3075712860
H       -4.5214137341    3.2867599305    3.5675895598
H       -2.2917459885    5.1813145170    0.4210160094
H       -3.5471618270    1.1071195562    2.9552348309
H       -1.2941250637    3.0042216463   -0.1887601814
H       -2.0053400396   -0.1314470203    1.7367425188
H        2.3550297150    0.3553881570   -1.1303668847
H        2.3657382433   -1.3555080712   -1.6030495588
H        0.9287495427    0.1246238076   -3.8396357180
H       -0.5341685319   -0.8591446719   -3.6078970922
H        1.0510148090   -1.6155157757   -3.4667054944
H        2.1315079830   -1.5911048186    0.7624921113
28   

C       -3.5031498065    4.3690639632    1.9197309000
C       -3.7844958250    3.2803974915    2.7479530883
C       -2.6365362718    4.2089279701    0.8358748119
C       -3.2018675671    2.0344171277    2.4903748417
C       -2.0414590384    2.9659758494    0.5896674824
C       -2.3132450257    1.8608503860    1.4140811042
C       -0.5585533986    0.2239358846    0.4581799466
C        0.4077234055   -0.6814260813    1.0302450488
C       -0.5737900502    0.1834651367   -1.0381814923
C       -1.6809349210    0.5709532910    1.1814983987
C        1.7468438738   -0.6454281874   -1.0253825997
C        0.4879609417   -0.4718197227   -3.1822183558
N        1.4589868319   -1.1509811312    0.2940796528
N        0.5251607459   -0.3124299612   -1.7321668102
O        0.3217840910   -1.0813325832    2.1784796009
O       -1.5479152759    0.5954197055   -1.6518951047
H       -3.9569718101    5.3339229874    2.1160918776
H       -4.4523115716    3.4010724037    3.5933635654
H       -2.4249858547    5.0474174983    0.1822944615
H       -3.4303107604    1.2043915088    3.1493756428
H       -1.3769122597    2.8612429019   -0.2600533773
H       -1.9101904410   -0.1069518156    1.9977222514
H        2.3833883621    0.2428480536   -0.9496897898
H        2.2936771915   -1.4125292848   -1.5839804872
H        0.9724146154    0.3814826252   -3.6670321619
H       -0.5408081844   -0.5449739072   -3.5497984786
H        1.0024678175   -1.3918202988   -3.4771177950
H        2.0441596248   -1.8344233856    0.7589883135
28   

C       -3.5262095283    4.3227256304    1.7806146800
C       -3.7447790775    3.2833782899    2.6862169596
C       -2.6839860702    4.1196172215    0.6854762587
C       -3.1256645278    2.0436687654    2.4929819492
C       -2.0526373320    2.8835172547    0.5021933410
C       -2.2646423990    1.8228452537    1.4018539458
C       -0.5523735902    0.1162681034    0.4755546056
C        0.3802292124   -0.8593715888    0.9866934689
C       -0.5681414297    0.1771205109   -1.0189372246
C       -1.6017219237    0.5333862538    1.2552839502
C        1.7287062910   -0.7162812159   -1.0552162151
C        0.4864053339   -0.3598576818   -3.1996817931
N        1.4106571826   -1.3189303747    0.2157037073
N        0.5235955463   -0.2932292077   -1.7422189857
O        0.2959664822   -1.3139867291    2.1146006579
O       -1.5427496820    0.6182209282   -1.6109290053
H       -4.0081599364    5.2828433750    1.9267677720
H       -4.3925397278    3.4372752890    3.5418018223
H       -2.5172650995    4.9204853071   -0.0257169343
H       -3.3078898841    1.2537790303    3.2129403152
H       -1.4012443124    2.7612596910   -0.3537996235
H       -1.7822801247   -0.0859595057    2.1282581795
H        2.3880880573    0.1449319489   -0.9017837638
H        2.2609755796   -1.4505886144   -1.6691760106
H        0.9657425245    0.5254744999   -3.6289383548
H       -0.5421916580   -0.4161274021   -3.5706823515
H        1.0061140491   -1.2557418479   -3.5537439984
H        1.9834898687   -2.0386106427    0.6394452054
28   

C       -3.6688424527    4.4605813282    1.7853427199
C       -3.7722260063    3.4535731062    2.7450983972
C       -2.8792932938    4.2555092940    0.6526956317
C       -3.0936894869    2.2434043838    2.5665666304
C       -2.1884051193    3.0495220655    0.4826729012
C       -2.2890529636    2.0153855379    1.4334058598
C       -0.6164262485    0.2767703450    0.4624806051
C        0.3039990820   -0.7456232276    0.9007778547
C       -0.6535541906    0.4281227142   -1.0242559032
C       -1.5706485656    0.7515161512    1.3198164504
C        1.6359708611   -0.4774708990   -1.1348716673
C        0.3829703707    0.0160637616   -3.2443210197
N        1.3110045886   -1.1766144315    0.0838955267
N        0.4324718353    0.0043581896   -1.7853096890
O        0.2428390669   -1.2517888710    2.0080824317
O       -1.6496414556    0.8628240146   -1.5835908606
H       -4.1970752388    5.3978145367    1.9196275230
H       -4.3770593264    3.6093422515    3.6312508987
H       -2.7972271634    5.0331408397   -0.0980082513
H       -3.1894267706    1.4797760522    3.3302804114
H       -1.5722228213    2.9439549349   -0.3995261196
H       -1.6697217377    0.1725772031    2.2325997003
H        2.2997925845    0.3653732795   -0.9134548656
H        2.1649560659   -1.1638968693   -1.8045485672
H        0.9072261184    0.8955298777   -3.6309734130
H       -0.6478121104    0.0346774381   -3.6126727220
H        0.8522001105   -0.8868312972   -3.6476472735
H        1.8885365425   -1.9186653309    0.4599625846
28   

C       -3.7083325179    4.4359223740    1.7478155121
C       -3.7111454532    3.4776588498    2.7605227454
C       -2.9767267191    4.2039057246    0.5825829829
C       -2.9931144800    2.2880630989    2.6008868410
C       -2.2460926111    3.0189841092    0.4302116673
C       -2.2496747969    2.0277833295    1.4321895253
C       -0.6369354768    0.2197057124    0.4523287466
C        0.2399059285   -0.8518584771    0.8647336749
C       -0.6443921047    0.4254178471   -1.0275293286
C       -1.4954000090    0.7808751293    1.3524531878
C        1.6222179697   -0.5371385399   -1.1272333651
C        0.4354201037    0.0846523283   -3.2405451617
N        1.2412648563   -1.2880644213    0.0436844456
N        0.4510191346    0.0131980943   -1.7821695196
O        0.1579582303   -1.3853994818    1.9578126963
O       -1.6349987925    0.8603586456   -1.5953532431
H       -4.2676572392    5.3570371537    1.8669297823
H       -4.2690217702    3.6549257013    3.6730761624
H       -2.9685422841    4.9458210716   -0.2076984044
H       -3.0135997153    1.5635942804    3.4073365128
H       -1.6711639610    2.9096919877   -0.4773205046
H       -1.5366035484    0.2500132957    2.2982229611
H        2.3035294428    0.2727539727   -0.8444227604
H        2.1497566174   -1.2039705095   -1.8175436956
H        0.9890883599    0.9659795611   -3.5789598827
H       -0.5852291766    0.1430633829   -3.6320568167
H        0.8930268343   -0.8121177506   -3.6700026648
H        1.7947620909   -2.0555944246    0.4044395268
28   

C       -3.7690677995    4.4409134447    1.7725299576
C       -3.6498039449    3.5346815028    2.8243206248
C       -3.1183458448    4.1826995707    0.5662919260
C       -2.8938323830    2.3693931403    2.6620504315
C       -2.3486556311    3.0231103926    0.4101940941
C       -2.2323895424    2.0782602958    1.4507653261
C       -0.6758792316    0.2143017146    0.4516183265
C        0.1512249823   -0.9024721360    0.8480387043
C       -0.6348871279    0.4707834717   -1.0192342357
C       -1.4418727712    0.8525603615    1.3820495918
C        1.6038594292   -0.5586829387   -1.0855568735
C        0.5112883766    0.1856250313   -3.2086468185
N        1.1545289644   -1.3482194534    0.0347036315
N        0.4764396494    0.0628327073   -1.7536035931
O        0.0336796694   -1.4598369150    1.9259076908
O       -1.6122307772    0.9052324004   -1.6085832553
H       -4.3588119555    5.3426833153    1.8930370358
H       -4.1427989361    3.7330975522    3.7693161906
H       -3.2022360958    4.8859262241   -0.2544117048
H       -2.8222996240    1.6866995126    3.5013993022
H       -1.8381988862    2.9099691419   -0.5326419812
H       -1.4247460545    0.3607707448    2.3493552991
H        2.3024871447    0.2120102253   -0.7420894803
H        2.1321414036   -1.2123950521   -1.7877955491
H        1.1184000859    1.0492732040   -3.4972826396
H       -0.4908898118    0.3093394022   -3.6312290839
H        0.9384397216   -0.7174103008   -3.6559809310
H        1.6754892875   -2.1425319054    0.3858303000
28   

C       -3.8328990629    4.4479911442    1.8170560725
C       -3.5642853370    3.6200634981    2.9043149957
C       -3.2888534589    4.1408461334    0.5708342719
C       -2.7670589896    2.4832881379    2.7383394158
C       -2.4779579539    3.0103817478    0.4090106162
C       -2.2101927369    2.1404493356    1.4873272445
C       -0.6975305456    0.2311095879    0.4826879803
C        0.0855957285   -0.9162095129    0.8797748141
C       -0.5959032775    0.5240289068   -0.9781492033
C       -1.3785390157    0.9417304749    1.4277949484
C        1.6183445239   -0.5623964385   -0.9884348903
C        0.6450029053    0.2954480481   -3.1225708747
N        1.1015155565   -1.3720828285    0.0880042641
N        0.5381040095    0.1165587243   -1.6773075501
O       -0.0739303065   -1.4847568822    1.9463334755
O       -1.5594704930    0.9325341390   -1.6058902118
H       -4.4557861899    5.3268623518    1.9400740920
H       -3.9739630714    3.8566470217    3.8798460873
H       -3.4889443921    4.7833777908   -0.2790759681
H       -2.5819609374    1.8629226309    3.6081797011
H       -2.0642527869    2.8689952202   -0.5742031699
H       -1.2965379385    0.4951004971    2.4135156676
H        2.3298535247    0.1719513143   -0.5957716576
H        2.1474460338   -1.2122723291   -1.6938871073
H        1.6270805801    0.7058631293   -3.3774810000
H       -0.1067764618    0.9939370010   -3.5037687501
H        0.5131596614   -0.6642980627   -3.6319194650
H        1.5875352905   -2.1892870349    0.4367210791
28   

C       -3.8680614682    4.3964761755    1.8344698577
C       -3.2069020683    3.8305636760    2.9214030412
C       -3.7161123917    3.8294649505    0.5706475624
C       -2.3822882286    2.7162053472    2.7367256991
C       -2.8972536576    2.7080233378    0.3890840145
C       -2.1802111503    2.1379666805    1.4640320951
C       -0.7076732070    0.2076594637    0.4350667388
C       -0.0577013066   -1.0252774865    0.8294752678
C       -0.5410974475    0.5520283975   -1.0081595666
C       -1.3050384471    0.9713541738    1.3974625175
C        1.3117105662   -1.0671873754   -1.1913601185
C        0.5006205107    0.1330404591   -3.2136918326
N        0.7782883857   -1.6961960817   -0.0142397654
N        0.3338803026   -0.1899547049   -1.7997636084
O       -0.2136608060   -1.5231785344    1.9314864759
O       -1.0168688099    1.5553626862   -1.5076449543
H       -4.5063146457    5.2620014350    1.9720453195
H       -3.3318156576    4.2540434293    3.9115853264
H       -4.2467413084    4.2475982675   -0.2771848694
H       -1.8849670271    2.3063273152    3.6086557409
H       -2.9067891510    2.2857847779   -0.6010649469
H       -1.0805879325    0.6222145713    2.4001604493
H        2.2059252532   -0.4913847718   -0.9270133659
H        1.6015340531   -1.8434998609   -1.9071398727
H        1.2144589105    0.9553747233   -3.3291240618
H       -0.4538052551    0.4290174547   -3.6611585443
H        0.8677139849   -0.7372512776   -3.7664167292
H        1.1728361157   -2.5471826043    0.3674934837
28   

C       -3.9607573324    4.2914291361    1.7287339863
C       -3.2519149982    3.8331573345    2.8377509636
C       -3.7570094425    3.6903012400    0.4866966769
C       -2.3333036076    2.7877702564    2.6984832140
C       -2.8435968570    2.6375346965    0.3507817297
C       -2.0922747126    2.1753871305    1.4509623492
C       -0.5941193530    0.2612937064    0.4442298619
C        0.0041790792   -0.9911864565    0.8488016355
C       -0.3536808879    0.6293516613   -0.9810754992
C       -1.1377057581    1.0732784636    1.4022842037
C        1.2805231133   -1.2109752967   -1.2356601610
C        0.6420019988    0.1810608117   -3.1947400993
N        0.7610375693   -1.7408021386   -0.0033236757
N        0.4285510944   -0.1832913128   -1.7976893153
O       -0.1401603770   -1.4478889976    1.9700144187
O       -0.6987159151    1.7103091595   -1.4301718971
H       -4.6722969473    5.1028095254    1.8325714472
H       -3.4136500026    4.2860074203    3.8094324320
H       -4.3157832085    4.0306017872   -0.3776085744
H       -1.8007518928    2.4547606484    3.5822347717
H       -2.7779923677    2.1765134685   -0.6228195187
H       -0.8764304602    0.7684445347    2.4106289557
H        2.2784198899   -0.7946990598   -1.0576183699
H        1.3745094482   -2.0311727237   -1.9550315043
H        1.4047979614    0.9634437162   -3.2664339294
H       -0.2860035683    0.5490258206   -3.6444343522
H        0.9694614573   -0.6874756287   -3.7746680725
H        1.1153897938   -2.5995264211    0.4001667763
28   

C       -4.0348858940    4.2366103053    1.7342467188
C       -3.2650777551    3.8662499159    2.8366008550
C       -3.8230051798    3.6114912061    0.5046467516
C       -2.2809173576    2.8810510541    2.7043721799
C       -2.8446355346    2.6179914900    0.3764647151
C       -2.0423574250    2.2416202414    1.4715588177
C       -0.5770280419    0.3297687022    0.4469267067
C       -0.0260038865   -0.9408357964    0.8497693619
C       -0.2813660145    0.7185872075   -0.9620420450
C       -1.0286584283    1.1963826025    1.4095529631
C        1.1726968523   -1.2685989752   -1.2764571069
C        0.7238240692    0.2783513391   -3.1711800223
N        0.6703525370   -1.7375961097   -0.0111490825
N        0.4544314417   -0.1208969895   -1.7935365754
O       -0.1566160719   -1.3708550237    1.9829838460
O       -0.5707990448    1.8290843941   -1.3811723264
H       -4.7972527906    5.0010455997    1.8333975510
H       -3.4310348546    4.3401349769    3.7974529444
H       -4.4222773636    3.8893361294   -0.3548136475
H       -1.7013508832    2.6116088862    3.5801129683
H       -2.7469579208    2.1368146379   -0.5864521229
H       -0.7062539965    0.9317703281    2.4116854035
H        2.2300596514   -1.0045973668   -1.1628935716
H        1.1002478945   -2.0863995994   -2.0010221428
H        1.5518546510    0.9942128712   -3.1997119570
H       -0.1608619171    0.7412047907   -3.6206246688
H        0.9868771112   -0.5918240659   -3.7807803117
H        1.0028576714   -2.5991007874    0.4050019282
28   

C       -4.0935818847    4.1696755437    1.7688994126
C       -3.2627812717    3.8816984971    2.8524672413
C       -3.8762858798    3.5351651707    0.5444060944
C       -2.2145489890    2.9664295790    2.7079191598
C       -2.8353087907    2.6093556049    0.4051710966
C       -1.9805131175    2.3127023388    1.4830551351
C       -0.5511876252    0.4046177143    0.4365775974
C       -0.0464198119   -0.8755963726    0.8604395082
C       -0.1977732626    0.7804821995   -0.9624482624
C       -0.9062021502    1.3337567770    1.3879375061
C        1.0983786010   -1.3187496275   -1.2821785639
C        0.8526293457    0.3140382482   -3.1435929045
N        0.6082348453   -1.7201288820    0.0121416568
N        0.5173393037   -0.0877876269   -1.7813263176
O       -0.1708302288   -1.2663699227    2.0083069975
O       -0.4592353978    1.8974317030   -1.3854249337
H       -4.9052067952    4.8801252030    1.8780754232
H       -3.4317284672    4.3646854639    3.8082125225
H       -4.5168402813    3.7556509813   -0.3017889592
H       -1.5876659417    2.7566805673    3.5671808184
H       -2.7104606748    2.1233081441   -0.5536006590
H       -0.5110229977    1.1195767153    2.3760087621
H        2.1852877486   -1.1945150233   -1.2214582876
H        0.8854789055   -2.1217383369   -1.9955384315
H        1.7161258975    0.9871049542   -3.1350456580
H        0.0077255694    0.8256358674   -3.6162481280
H        1.0926876176   -0.5607585764   -3.7561530251
H        0.9254242470   -2.5741755349    0.4549046099
28   

C       -4.1588981878    4.1029958441    1.8554103507
C       -3.2548429147    3.8860485277    2.8971854142
C       -3.9649744278    3.4669098114    0.6271726508
C       -2.1580667811    3.0376695608    2.7085069875
C       -2.8761697961    2.6061192814    0.4453095876
C       -1.9552712106    2.3779487411    1.4824790095
C       -0.5755508761    0.4715813806    0.3902398747
C       -0.1313604547   -0.8168272038    0.8495337879
C       -0.1540982633    0.8131910850   -0.9990714067
C       -0.8344180784    1.4648461545    1.3182076623
C        1.0421271796   -1.3536045470   -1.2582061832
C        0.9815270925    0.2941508112   -3.1243789593
N        0.5049575579   -1.7058336068    0.0327535060
N        0.5697532082   -0.0843924264   -1.7765946327
O       -0.2761703020   -1.1662417818    2.0080548284
O       -0.4033817294    1.9219543544   -1.4514509137
H       -5.0076938383    4.7619959749    1.9991531863
H       -3.4049460859    4.3718823017    3.8545912739
H       -4.6582752133    3.6382849237   -0.1882630805
H       -1.4733474576    2.8794924608    3.5339384716
H       -2.7483319124    2.1226188160   -0.5159061840
H       -0.3524370392    1.3017210171    2.2770179729
H        2.1344441635   -1.3152514352   -1.1819154059
H        0.7768371331   -2.1429253052   -1.9692705017
H        1.8708001578    0.9312274264   -3.0804772400
H        0.1805246177    0.8362188990   -3.6378101520
H        1.2127973858   -0.5938285112   -3.7211687979
H        0.7930454453   -2.5526808422    0.5081321601
28   

C       -4.1906858933    4.0048706713    1.9648253905
C       -3.1974880724    3.8699882181    2.9379452402
C       -4.0409361637    3.3706167035    0.7289473058
C       -2.0562280939    3.1039616143    2.6740115408
C       -2.9067907441    2.5911614469    0.4731787254
C       -1.9011346043    2.4442260330    1.4419606516
C       -0.5181760663    0.5828847507    0.2702367871
C       -0.1410235502   -0.7101878118    0.7730149280
C        0.0133261744    0.8878462331   -1.0885083576
C       -0.7377236501    1.6154604011    1.1802476729
C        0.9662158201   -1.3990850112   -1.3333984253
C        1.2617666003    0.3004784731   -3.1307240150
N        0.4669320727   -1.6533104744   -0.0042447443
N        0.7137527642   -0.0592247765   -1.8269869516
O       -0.3029305466   -1.0094907713    1.9431511717
O       -0.1436420279    2.0101808992   -1.5491227128
H       -5.0737877444    4.6003223715    2.1672980890
H       -3.3127964407    4.3553945750    3.9003620882
H       -4.8026167430    3.4821273359   -0.0342052997
H       -1.3008509098    3.0066521118    3.4454312289
H       -2.7993061382    2.1102292057   -0.4928543149
H       -0.1589140719    1.5111319895    2.0924048459
H        2.0490823380   -1.5658627201   -1.3284612827
H        0.5126894037   -2.1197786804   -2.0216566073
H        2.2006092380    0.8494351818   -3.0055432211
H        0.5567427986    0.9233923920   -3.6911689096
H        1.4548746062   -0.5958610228   -3.7286650529
H        0.7399822068   -2.4817247603    0.5108587273
28   

C       -4.2208136498    3.2361061496    2.4827520879
C       -3.0658487947    3.3583722672    3.2591589622
C       -4.1702284566    2.5470214268    1.2682630061
C       -1.8624162840    2.7950931117    2.8195944526
C       -2.9688502552    1.9717164466    0.8375322712
C       -1.8000304753    2.0868046469    1.6072385305
C       -0.2945359970    0.4932011980    0.2095163405
C        0.0644169925   -0.8250724206    0.6675196432
C        0.3055234472    0.8056354534   -1.1339461989
C       -0.5629857322    1.4765270594    1.1682981049
C        0.3292158541   -1.5973704969   -1.6409924448
C        1.4605933709    0.0193152307   -3.1870121633
N        0.4236696392   -1.8037728721   -0.2168872815
N        0.6967721242   -0.2341613582   -1.9706024920
O        0.1118626063   -1.1057004076    1.8523522588
O        0.4823602697    1.9691502891   -1.4636464283
H       -5.1527812166    3.6744148660    2.8216762677
H       -3.1021806297    3.8866548640    4.2051508486
H       -5.0623103986    2.4574464675    0.6589668188
H       -0.9782926846    2.8956174358    3.4389250015
H       -2.9433346240    1.4416525577   -0.1076174791
H        0.2122993122    1.5523284309    1.9236305218
H        1.0051989712   -2.2939868400   -2.1480889833
H       -0.6926794222   -1.8014675981   -1.9786631603
H        2.5285885245   -0.1227078615   -2.9935436084
H        1.3035323062    1.0385947641   -3.5541481610
H        1.1482615130   -0.6655855439   -3.9816109975
H        0.7639813565   -2.6638484723    0.1955093570
