26   

C        0.3825551135   -0.4969873813   -0.3395467632
C        7.4793490964   -0.2456682940    4.7894086037
C        1.6083538617    0.1304173769   -0.0989806091
C       -0.1660909743   -1.3427225437    0.6283764889
C        6.9696567281   -0.6312588668    3.5461804407
C        6.6036885144    0.1189583070    5.8157745532
C        2.2841359522   -0.0910866331    1.1071242755
C        0.5095769872   -1.5560642425    1.8355373900
C        5.5862628650   -0.6488506111    3.3308920016
C        5.2211596945    0.0934602784    5.5983683542
C        1.7419217659   -0.9349446795    2.0873292042
C        4.6975707677   -0.2883288725    4.3541982531
C        2.4376097912   -1.1515483669    3.3572829463
C        3.2500796820   -0.3257621338    4.1367681764
H       -0.1421142388   -0.3267106007   -1.2729024670
H        8.5502499626   -0.2313779505    4.9579185762
H        2.0346150445    0.7915069931   -0.8448508653
H       -1.1160529529   -1.8320184371    0.4456395618
H        7.6452674845   -0.9201528023    2.7492152508
H        6.9946544010    0.4194882116    6.7812057492
H        3.2309870392    0.4039504500    1.2896218013
H        0.0737125358   -2.2098798239    2.5819282194
H        5.1978794188   -0.9553083853    2.3664573874
H        4.5500338594    0.3733493751    6.4019862975
H        2.3187089550   -2.1484648253    3.7646373276
H        2.7015264972    0.4456627135    4.6639405906
26   

C        0.6156443766   -0.5027253847   -0.3394981889
C        7.3974670604   -0.1894007941    4.5782559025
C        1.7864698436    0.1602789196    0.0385014429
C        0.0022903434   -1.3889146310    0.5498696389
C        6.7893671513   -0.6623569541    3.4121417963
C        6.6073431555    0.2227208945    5.6545309146
C        2.3425954008   -0.0651597123    1.3034151628
C        0.5598240250   -1.6094213236    1.8146989355
C        5.3933513634   -0.7206464601    3.3235433217
C        5.2119981795    0.1602005993    5.5631094850
C        1.7370586981   -0.9534901319    2.2057626523
C        4.5882051539   -0.3088178810    4.3969351591
C        2.3031591079   -1.1803296901    3.5392687423
C        3.1259291432   -0.3847065777    4.3186123963
H        0.1829561385   -0.3279895921   -1.3181003080
H        8.4784203385   -0.1451416382    4.6489225570
H        2.2624882283    0.8529958518   -0.6460771206
H       -0.9069505209   -1.9040664255    0.2615492998
H        7.3985191952   -0.9885242135    2.5768897259
H        7.0747574786    0.5886571112    6.5616386737
H        3.2446473657    0.4630759050    1.5895439524
H        0.0726809574   -2.2951743963    2.4980121858
H        4.9333143150   -1.0995977457    2.4183562073
H        4.6094178337    0.4778678366    6.4060021965
H        2.0748664073   -2.1449334015    3.9767090987
H        2.5955028492    0.3236008397    4.9438168864
26   

C        0.8356655632   -0.4911312171   -0.3310113504
C        7.3152581607   -0.1541084947    4.3770056882
C        1.9154434659    0.2359727528    0.1769663393
C        0.2032988049   -1.4445892382    0.4707946851
C        6.6348621884   -0.7467143123    3.3099912375
C        6.5966072475    0.3431938064    5.4670043462
C        2.3609472782    0.0087608636    1.4845522480
C        0.6520968262   -1.6697661037    1.7773249424
C        5.2382960069   -0.8409689928    3.3343740075
C        5.2002949306    0.2481097151    5.4874669245
C        1.7372670033   -0.9493023998    2.3005710355
C        4.5026497956   -0.3418679163    4.4217904282
C        2.1831580841   -1.1832362847    3.6795195389
C        3.0394918692   -0.4517754391    4.4675231481
H        0.4877595487   -0.3139365666   -1.3424277133
H        8.3969767735   -0.0832688490    4.3607158440
H        2.4065635952    0.9799256729   -0.4398279385
H       -0.6370671588   -2.0085026227    0.0821900544
H        7.1883614454   -1.1379588205    2.4640201245
H        7.1204397985    0.8005006988    6.2986871399
H        3.1925621678    0.5883045097    1.8684778924
H        0.1493374472   -2.4087989855    2.3900704088
H        4.7252194493   -1.3132225542    2.5045642225
H        4.6556322953    0.6335001092    6.3414056166
H        1.8236577328   -2.0972071679    4.1371344687
H        2.5475677472    0.1743540867    5.2023477752
26   

C        1.0322162409   -0.4708979588   -0.3079398505
C        7.2300196038   -0.1369576774    4.1979105524
C        2.0020648867    0.3233821772    0.3092254829
C        0.4104243226   -1.4922388376    0.4144239769
C        6.5032737984   -0.8491824351    3.2403310450
C        6.5652124573    0.4497717495    5.2774255482
C        2.3466982807    0.0970947330    1.6470490150
C        0.7607678875   -1.7186647235    1.7504837214
C        5.1146413083   -0.9756223237    3.3646765510
C        5.1761591898    0.3252581047    5.3961268272
C        1.7331473021   -0.9291370042    2.3847261861
C        4.4319337776   -0.3872667625    4.4424104714
C        2.0722477920   -1.1659128237    3.7954234415
C        2.9765767456   -0.5276293742    4.5951040238
H        0.7613911618   -0.2937430636   -1.3426612565
H        8.3060021540   -0.0420806106    4.1049713877
H        2.4865030210    1.1181390408   -0.2464250256
H       -0.3457418753   -2.1081816371   -0.0588990928
H        7.0145058829   -1.3076013473    2.4015464256
H        7.1254064762    0.9995663468    6.0251661446
H        3.0953055652    0.7268699732    2.1140088901
H        0.2670571694   -2.5119491812    2.2993499961
H        4.5659200707   -1.5379218561    2.6178115293
H        4.6746681157    0.7823666547    6.2410317952
H        1.5599216558   -1.9956512708    4.2678509861
H        2.5432119837   -0.0174187856    5.4471674121
26   

C        1.2087680890   -0.4509604253   -0.2812687641
C        7.1490137321   -0.1241931832    4.0377439831
C        2.0595497835    0.4076239794    0.4198723153
C        0.6182018725   -1.5320887409    0.3776926770
C        6.4021313217   -0.9487572468    3.1922382126
C        6.5173899898    0.5443759988    5.0893691080
C        2.3142258472    0.1870696856    1.7786111007
C        0.8815713210   -1.7541189109    1.7343282220
C        5.0272370224   -1.1073864166    3.4024228290
C        5.1410552615    0.3896429282    5.2915173950
C        1.7308564102   -0.8981437000    2.4529201201
C        4.3782722717   -0.4382306034    4.4529855975
C        1.9778081076   -1.1317102303    3.8850696819
C        2.9363932139   -0.6092100946    4.6942701585
H        1.0065572632   -0.2779953393   -1.3322418107
H        8.2148279764   -0.0048170154    3.8791970576
H        2.5219599706    1.2468490856   -0.0869654280
H       -0.0461547253   -2.1980938290   -0.1610340446
H        6.8867769948   -1.4682873256    2.3735738717
H        7.0935873558    1.1814576567    5.7506431573
H        2.9730625860    0.8632425562    2.3114453237
H        0.4149708871   -2.5950352442    2.2337460428
H        4.4604401346   -1.7531849323    2.7414488611
H        4.6642444028    0.9121256550    6.1124570230
H        1.3057686019   -1.8318913704    4.3672949818
H        2.5788755965   -0.2568019976    5.6546979305
26   

C        1.3493937198   -0.4378644266   -0.2493570786
C        7.0728340583   -0.1157532365    3.9151175367
C        2.1037102989    0.4673964311    0.5020452591
C        0.7827501607   -1.5530924415    0.3732335513
C        6.3236506517   -1.0192174725    3.1564527309
C        6.4589143127    0.6004739871    4.9459231582
C        2.2844075244    0.2596883638    1.8745686722
C        0.9744943997   -1.7625884111    1.7438523488
C        4.9648224269   -1.2096248500    3.4338455596
C        5.0975643994    0.4147343229    5.2132828401
C        1.7244372075   -0.8588764594    2.5116147502
C        4.3346705475   -0.4932925287    4.4635820812
C        1.8974717575   -1.0806789140    3.9581562965
C        2.9080072388   -0.6951200967    4.7726542423
H        1.2039368245   -0.2750711070   -1.3112707119
H        8.1265870139    0.0283884906    3.7050026749
H        2.5492681636    1.3318967215    0.0234390083
H        0.1929093644   -2.2553473078   -0.2047200827
H        6.7936856686   -1.5742690809    2.3527539589
H        7.0372252165    1.2987859258    5.5400789573
H        2.8704918395    0.9683440126    2.4486394113
H        0.5294310979   -2.6301202163    2.2167238600
H        4.3927650936   -1.9134875362    2.8400666739
H        4.6319124520    0.9744694581    6.0158819398
H        1.0871921464   -1.6107682049    4.4451980591
H        2.6313435511   -0.5322746715    5.8078817003
26   

C        1.4429376946   -0.4378366744   -0.2211332729
C        7.0141326685   -0.1041584221    3.8375709865
C        2.1524023545    0.4898757207    0.5467084832
C        0.8698230105   -1.5540366598    0.3941674348
C        6.2701246645   -1.0432553461    3.1177736856
C        6.4094885604    0.6139340741    4.8727997862
C        2.2815234085    0.3034095113    1.9280685751
C        1.0108707087   -1.7421323070    1.7740444657
C        4.9260732844   -1.2671779378    3.4386719667
C        5.0622422393    0.3946292006    5.1829098903
C        1.7150086333   -0.8157118196    2.5569122643
C        4.3061037898   -0.5490437492    4.4725014654
C        1.8378587037   -1.0165489958    4.0133602846
C        2.8927851185   -0.7840488366    4.8243794472
H        1.3375968161   -0.2919142755   -1.2902034612
H        8.0565817455    0.0664445215    3.5936558331
H        2.6037379478    1.3545871706    0.0739695851
H        0.3147645044   -2.2736847719   -0.1966725802
H        6.7323840560   -1.5991568015    2.3101840228
H        6.9839268070    1.3398822111    5.4367979958
H        2.8344886158    1.0265218639    2.5168355580
H        0.5627347346   -2.6101847748    2.2430827505
H        4.3550973449   -1.9962285898    2.8749549055
H        4.6015040190    0.9554496929    5.9876077806
H        0.9314597275   -1.3456415514    4.5083724136
H        2.6859310295   -0.8311649030    5.8873427449
26   

C        1.5760706291   -0.9292853480   -0.2458901798
C        6.8826558011    0.3870521015    3.8611664486
C        2.6457974143   -1.5801977083    0.3753820100
C        0.5929302200   -0.3119878250    0.5323308461
C        5.8001573269    1.0343717900    3.2585395262
C        6.6526823856   -0.6401794237    4.7804956374
C        2.7268607653   -1.6179176939    1.7724157446
C        0.6840030492   -0.3431992508    1.9287511783
C        4.4909594465    0.6577909609    3.5808547659
C        5.3419674872   -1.0203716524    5.0915410090
C        1.7490723865   -0.9973971806    2.5639639447
C        4.2476890361   -0.3753097701    4.4980020711
C        1.8227902458   -1.0366415978    4.0384166303
C        2.8700834146   -0.7758785342    4.8486826206
H        1.5093351174   -0.9032673166   -1.3276314934
H        7.8970731995    0.6807084055    3.6161768871
H        3.4141551128   -2.0557686143   -0.2232488756
H       -0.2407786533    0.1901952458    0.0550233775
H        5.9726710170    1.8278818119    2.5405685444
H        7.4889492848   -1.1420726696    5.2536150352
H        3.5603392291   -2.1218142023    2.2486848933
H       -0.0820264216    0.1375299162    2.5258148727
H        3.6553218251    1.1614719514    3.1081522353
H        5.1711887655   -1.8176757366    5.8053529161
H        0.9314049243   -1.4098907850    4.5292850596
H        2.6527550621   -0.7767249020    5.9105683660
26   

C        1.5492170286   -0.9747400968   -0.2492695477
C        6.8846228713    0.4248586487    3.8984232438
C        2.6085987183   -1.6273623558    0.3874129511
C        0.5824485526   -0.3140965509    0.5135300597
C        5.7909673672    1.0659013200    3.3097374848
C        6.6730661526   -0.6338399263    4.7857523288
C        2.6954416749   -1.6239037940    1.7845665677
C        0.6793787275   -0.3039336953    1.9098918248
C        4.4888916095    0.6519203145    3.6143983524
C        5.3696585120   -1.0515700728    5.0789429024
C        1.7339073855   -0.9599924314    2.5614257367
C        4.2634130491   -0.4129854050    4.4998263612
C        1.8115432713   -0.9581208593    4.0346693904
C        2.8948944021   -0.8509440591    4.8343568308
H        1.4777720521   -0.9811344505   -1.3310059393
H        7.8933987859    0.7478985851    3.6675185755
H        3.3643464845   -2.1366974542   -0.1993868042
H       -0.2434521107    0.1894188330    0.0242095043
H        5.9492564741    1.8840115936    2.6165195350
H        7.5181151906   -1.1308842042    5.2482607194
H        3.5208138192   -2.1311023328    2.2712069594
H       -0.0750031645    0.2103003273    2.4936820988
H        3.6456664993    1.1530953349    3.1527681810
H        5.2147147674   -1.8729867678    5.7685846090
H        0.8687144475   -1.1220406551    4.5436913298
H        2.7248041889   -1.0629288342    5.8836571167
26   

C        1.4674043890   -1.0134919788   -0.2835248060
C        6.9362611851    0.4533350663    3.9754007761
C        2.5578546776   -1.6232634574    0.3427278160
C        0.5064903597   -0.3523048356    0.4858369832
C        5.8506577847    1.0647333830    3.3423502638
C        6.7167978602   -0.6065526261    4.8590955764
C        2.6819640113   -1.5765653407    1.7362939249
C        0.6397967033   -0.2990735935    1.8781910492
C        4.5483181886    0.6200500237    3.5988240050
C        5.4137813503   -1.0548916865    5.1048494377
C        1.7261975095   -0.9118627249    2.5206768110
C        4.3141467351   -0.4465830274    4.4808867565
C        1.8400553175   -0.8673681310    3.9892302367
C        2.9466124208   -0.9145482240    4.7680329607
H        1.3671388474   -1.0538602954   -1.3622448437
H        7.9449051834    0.8005374655    3.7819909290
H        3.3085965981   -2.1337741993   -0.2494817367
H       -0.3434926056    0.1179886652    0.0047372527
H        6.0153658586    1.8844585421    2.6525179142
H        7.5554802042   -1.0806555459    5.3560283218
H        3.5311075313   -2.0535274968    2.2124321793
H       -0.1119590052    0.2152618061    2.4652367543
H        3.7129832046    1.1016682810    3.1033388677
H        5.2549687077   -1.8767929731    5.7930046938
H        0.8994355366   -0.8106041449    4.5247390373
H        2.8002408654   -1.3384658029    5.7547581942
26   

C        1.3373511911   -1.0515069847   -0.3281623181
C        7.0140632086    0.4738826172    4.0931774904
C        2.4953204055   -1.5697358140    0.2576292467
C        0.3701362295   -0.4386912786    0.4723261926
C        5.9617949159    1.0276233202    3.3592095657
C        6.7578755373   -0.5520782709    5.0061950946
C        2.6818470318   -1.4790430020    1.6420668592
C        0.5638475831   -0.3426736092    1.8552065865
C        4.6556391925    0.5586469995    3.5427978539
C        5.4517966145   -1.0239261103    5.1811758395
C        1.7200029053   -0.8619255243    2.4585782658
C        4.3839256918   -0.4750470931    4.4540162597
C        1.8966032722   -0.7745877339    3.9171624202
C        3.0129778578   -0.9659107416    4.6681191572
H        1.1893219506   -1.1259933688   -1.3995579455
H        8.0252183138    0.8399901880    3.9557736573
H        3.2498703896   -2.0445282543   -0.3590007238
H       -0.5319267508   -0.0393985371    0.0228727334
H        6.1552228584    1.8225502227    2.6480958849
H        7.5703604234   -0.9814805010    5.5812105711
H        3.5829046619   -1.8889280759    2.0839747612
H       -0.1955417190    0.1329573195    2.4646159181
H        3.8480515573    0.9999611528    2.9698774316
H        5.2668214505   -1.8184673442    5.8944539405
H        1.0099561943   -0.5063336013    4.4795940909
H        2.8697748208   -1.5821571602    5.5479860852
26   

C        1.1700525249   -1.1058750797   -0.3561353693
C        7.0866129157    0.4961173591    4.2545521277
C        2.4048910446   -1.5043875413    0.1622677545
C        0.2019845292   -0.5678193135    0.4952812757
C        6.0950196274    0.9768790926    3.3954867431
C        6.7680290675   -0.4766521508    5.2052341340
C        2.6688246993   -1.3667064527    1.5301632639
C        0.4709763224   -0.4273342912    1.8616543690
C        4.7871758377    0.4865656998    3.4897304614
C        5.4604191044   -0.9679842481    5.2935882604
C        1.7067090900   -0.8232035636    2.3977480255
C        4.4529880106   -0.4949113128    4.4377719916
C        1.9637533199   -0.6898890550    3.8390264198
C        3.0798227715   -1.0052612112    4.5598578193
H        0.9629406323   -1.2160696381   -1.4145972405
H        8.0988134013    0.8782711270    4.1853781431
H        3.1589520891   -1.9238425937   -0.4938692269
H       -0.7591117612   -0.2613269164    0.0983373005
H        6.3366687047    1.7327464863    2.6570183571
H        7.5330399040   -0.8494460568    5.8767922835
H        3.6286580661   -1.6877577486    1.9183977970
H       -0.2911148674   -0.0120385407    2.5105381192
H        4.0273354925    0.8752332948    2.8214012877
H        5.2272603005   -1.7195396355    6.0386443690
H        1.1668478077   -0.2376842602    4.4174590574
H        2.9310528301   -1.7768544153    5.3059433140
26   

C        0.9780951386   -1.1733765668   -0.3752542505
C        7.1561965175    0.5224039998    4.4448977685
C        2.2806625703   -1.4473362927    0.0500911416
C        0.0313224000   -0.7128369011    0.5431070172
C        6.2530555376    0.9312606715    3.4600981855
C        6.7521583178   -0.3944830806    5.4185174885
C        2.6342861894   -1.2604605919    1.3917035226
C        0.3887507897   -0.5262444894    1.8834674490
C        4.9486058674    0.4231242892    3.4502265288
C        5.4474565510   -0.9011355349    5.4049243035
C        1.6939252956   -0.7944049628    2.3251050306
C        4.5298448684   -0.5020856776    4.4204565529
C        2.0476176613   -0.6125260341    3.7387183635
C        3.1587492670   -1.0277267593    4.4319140340
H        0.7021699462   -1.3206158225   -1.4133227861
H        8.1657379907    0.9175144557    4.4554523964
H        3.0176198375   -1.8090214130   -0.6578482086
H       -0.9813648724   -0.5024244942    0.2184242728
H        6.5605632114    1.6457986430    2.7051321040
H        7.4482730845   -0.7118126387    6.1866017314
H        3.6454559158   -1.4877620446    1.7090732589
H       -0.3568208705   -0.1732397551    2.5862493946
H        4.2559657791    0.7580005411    2.6867055680
H        5.1457427635   -1.6079449991    6.1689818983
H        1.3525592151   -0.0188938348    4.3205168879
H        3.0024112596   -1.9090003778    5.0425779176
26   

C        0.7775230231   -1.2479861455   -0.3973536520
C        7.2294598756    0.5538561752    4.6444180231
C        2.1308672187   -1.4080566997   -0.0873020554
C       -0.1200661028   -0.8524181200    0.5978249192
C        6.4386706396    0.9040975540    3.5465658296
C        6.7238713022   -0.3158251988    5.6142397129
C        2.5843669208   -1.1707221339    1.2158126797
C        0.3367720699   -0.6189337389    1.9001495573
C        5.1454118936    0.3831134353    3.4194410429
C        5.4293202595   -0.8322687831    5.4850412322
C        1.6934085966   -0.7720619192    2.2244121727
C        4.6259597156   -0.4921036902    4.3859685320
C        2.1578759491   -0.5400479043    3.5956709670
C        3.2656144878   -1.0267294776    4.2692673555
H        0.4245966029   -1.4328940233   -1.4056517966
H        8.2305607906    0.9577012312    4.7450176403
H        2.8297576665   -1.7203458042   -0.8548473643
H       -1.1709719057   -0.7286433411    0.3622293291
H        6.8247198730    1.5829711721    2.7947715555
H        7.3331167597   -0.5889018590    6.4683346503
H        3.6341952688   -1.3087175211    1.4469686526
H       -0.3693184158   -0.3173150906    2.6649664691
H        4.5374628824    0.6704837286    2.5694810050
H        5.0459332507   -1.5020077125    6.2459264438
H        1.5603777157    0.1574301956    4.1705216947
H        3.1042073196   -1.9805685452    4.7571936475
26   

C        0.5709762821   -1.3503005559   -0.4052922024
C        7.2868520610    0.6059624705    4.8617979345
C        1.9541375724   -1.4357897547   -0.2218983092
C       -0.2488204531   -0.9741537846    0.6622325114
C        6.6172987022    0.9325537301    3.6789548585
C        6.6840009247   -0.2508608972    5.7867765585
C        2.5148406692   -1.1425166342    1.0271112719
C        0.3152366421   -0.6883920361    1.9110239098
C        5.3481365293    0.3999033194    3.4221812656
C        5.4122164353   -0.7757525321    5.5292004618
C        1.7020788707   -0.7673012048    2.1067256792
C        4.7316146768   -0.4582310334    4.3443728015
C        2.2851939880   -0.4799935910    3.4189424652
C        3.3957663806   -0.9998907843    4.0864675477
H        0.1350442340   -1.5769614649   -1.3717364349
H        8.2696740783    1.0174090123    5.0622912396
H        2.5929639019   -1.7325545865   -1.0458491024
H       -1.3218989687   -0.9057151458    0.5242165750
H        7.0790590577    1.6011778846    2.9614722398
H        7.2000289698   -0.5075078606    6.7049690206
H        3.5875057857   -1.2173242105    1.1638407870
H       -0.3292304893   -0.4022081712    2.7340111245
H        4.8320183149    0.6627454952    2.5059718089
H        4.9509782090   -1.4355258824    6.2548087391
H        1.7726298566    0.2971601109    3.9732168846
H        3.2410000982   -2.0025251266    4.4668383439
