15

C      4.67996   -4.71771    3.44479
C      2.06895   -1.15995   -0.55061
C      4.53390   -2.24074    3.12123
C      3.03010   -1.98902    2.97989
N      4.83400   -3.54275    3.65159
S      4.57217   -6.29477    3.30145
S      3.08185   -2.59134   -0.01519
S      2.18161   -3.10847    1.79726
H      2.45806   -0.85448   -1.52672
H      2.16224   -0.32575    0.14831
H      1.02154   -1.44933   -0.65111
H      4.95521   -1.48750    3.79444
H      5.02125   -2.12579    2.14604
H      2.52228   -2.15595    3.93535
H      2.86705   -0.94895    2.68211
