20

C     -0.45379   -2.74228    1.41934
C     -0.68809   -4.16183    0.94200
C     -0.23841    1.71578   -1.13991
C      1.01699    0.49243    3.35729
N     -0.47688   -1.77682    0.42319
O     -0.26347   -2.44378    2.59051
O     -1.46040    0.53069    1.47541
O     -0.13078    0.31082   -0.80279
P     -0.33469   -0.10477    0.75007
S      1.54557    0.25704    1.61139
H     -0.05070   -4.40702    0.08648
H     -1.73183   -4.28102    0.63197
H     -0.48042   -4.84874    1.76207
H     -0.11719    1.77379   -2.22145
H      0.55425    2.28366   -0.64508
H     -1.21727    2.09890   -0.84361
H      1.90831    0.82200    3.89534
H      0.65340   -0.45335    3.75715
H      0.23962    1.25416    3.40924
H     -0.60664   -2.05236   -0.54520
