24

C      4.29297    1.43076   -5.26040
C      3.44447    0.83314   -4.37452
C      4.90509   -0.86959   -4.48395
C      0.96220    0.63595   -4.22908
C     -0.50108   -1.07828   -3.53981
C      5.77788   -3.25826   -6.63475
C      2.17589    1.45934   -3.84238
N      3.77317   -0.43146   -3.94884
N      5.41505   -2.08451   -4.20715
O      0.41776    0.65139   -5.31911
O      7.08946   -3.93642   -4.44394
O      7.62135   -1.72069   -5.54639
O      0.53872   -0.14629   -3.20523
S      5.65733    0.38781   -5.58856
S      6.60228   -2.70970   -5.10449
H      4.19404    2.40404   -5.72529
H     -0.68328   -1.65220   -2.63017
H     -0.17181   -1.73796   -4.34643
H     -1.40870   -0.55380   -3.85343
H      6.53784   -3.70265   -7.28164
H      5.01832   -3.99328   -6.36390
H      5.32527   -2.38939   -7.11758
H      2.22569    1.53096   -2.75169
H      2.05125    2.45697   -4.27053
