24

C      3.98390    1.56553   -5.51731
C      3.41311    0.80061   -4.53966
C      5.25533   -0.45674   -4.78066
C      2.31638    1.54410   -2.42949
C      2.73631    0.78578   -0.23557
C      5.60256   -2.07889   -2.05861
C      2.09529    1.11228   -3.86649
N      4.10540   -0.31416   -4.13016
N      6.23536   -1.35919   -4.66345
O      2.45520    2.69564   -2.05251
O      7.28738   -3.37700   -3.62483
O      4.82303   -3.49763   -4.15367
O      2.36637    0.48275   -1.58947
S      5.51448    0.85774   -5.99776
S      5.98624   -2.68215   -3.73349
H      3.61204    2.48560   -5.94939
H      2.77482   -0.17570    0.27772
H      1.99810    1.44430    0.23177
H      3.71533    1.27105   -0.20886
H      5.48932   -2.96372   -1.42769
H      6.44360   -1.47030   -1.71981
H      4.68165   -1.49774   -2.10812
H      1.59402    1.93264   -4.38352
H      1.46335    0.21914   -3.88070
