20

C      0.14454   -1.56832   -0.77491
C     -0.37032   -2.99330   -0.84737
C      0.03628    2.90811   -1.63520
C      0.82936    1.71805    2.70688
N     -0.73949   -0.66473   -0.18490
O      1.24017   -1.21867   -1.18224
O     -1.57235    1.58469    0.85725
O     -0.19811    1.49913   -1.40528
P     -0.44456    0.98545    0.09595
S      1.42667    1.19839    1.04524
H     -1.32481   -3.03670   -1.38213
H     -0.52910   -3.39265    0.16018
H      0.36494   -3.60792   -1.36597
H      0.13178    3.02014   -2.71493
H      0.96096    3.22307   -1.14421
H     -0.80880    3.49511   -1.26684
H      1.72105    2.03208    3.25398
H      0.35643    0.88429    3.22698
H      0.12762    2.54680    2.62395
H     -1.62836   -0.99999    0.17411
