25

C      0.91040    1.03915    3.02011
C      0.76939    0.12691    2.03427
C      3.03775   -0.19866    2.50960
C     -0.83915   -1.62238    1.18733
C     -2.62057   -3.17111    1.13777
C      5.77577   -2.82421    2.37310
C     -0.46911   -0.14650    1.23410
N      4.26075   -0.65223    2.51903
N      1.95583   -0.54711    1.74570
O     -0.03350   -2.52642    1.07773
O      3.59011   -2.55700    0.87814
O      5.59320   -1.09427    0.37011
O     -2.17252   -1.79739    1.24161
S      2.55892    1.08497    3.63080
S      4.74119   -1.75686    1.36322
H      0.15381    1.70733    3.40679
H     -3.70775   -3.12312    1.18401
H     -2.22120   -3.75948    1.96625
H     -2.28919   -3.60456    0.19201
H      6.20288   -3.56906    1.69948
H      6.55758   -2.21195    2.82235
H      5.15330   -3.29608    3.13335
H     -0.31163    0.16371    0.19222
H     -1.30145    0.43809    1.62616
H      1.99688   -1.40345    1.18337
