13

C     -1.25035    2.60200   -2.08175
C     -0.17221    0.24414    0.00800
C      0.37874   -1.23769    1.77287
C      0.08103    0.47977   -1.50757
N     -0.63451    1.65455   -1.90347
O     -0.86517    0.97131    0.67754
O      0.48953   -0.84126    0.36243
H     -1.82585    3.49692   -2.27248
H      0.98305   -2.13779    1.85375
H     -0.66686   -1.43664    2.00838
H      0.76892   -0.43742    2.40188
H     -0.27929   -0.36059   -2.10729
H      1.14307    0.63852   -1.71403
