15

C      5.38691   -4.49082    2.92472
C     -0.31714   -3.61680    4.39446
C      4.15114   -2.74725    4.22596
C      3.02445   -2.32572    3.27842
N      5.18768   -3.49101    3.56329
S      5.80828   -5.77167    2.08742
S      1.21494   -4.60603    4.20599
S      2.09910   -3.72470    2.53137
H     -0.86292   -4.05077    5.23784
H     -0.92835   -3.68359    3.49287
H     -0.08868   -2.57194    4.61618
H      3.73985   -3.34932    5.04453
H      4.59659   -1.84891    4.66487
H      2.33063   -1.67165    3.81490
H      3.42869   -1.77114    2.42539
