30

C      1.49706   -1.89569   -0.00923
C      5.24217    0.00955    0.51529
C      1.22732   -2.91596    0.91094
C      1.81639   -0.60867    0.43348
C      5.22795   -1.35102    0.84494
C      5.09932    0.98347    1.50906
C      1.27930   -2.65686    2.28101
C      1.88722   -0.33525    1.80012
C      5.08578   -1.74758    2.17465
C      4.93501    0.60492    2.84373
C      1.62908   -1.36925    2.70179
C      4.93424   -0.75757    3.15047
N      3.11541   -1.85930    5.10925
O      1.99692    0.41060    4.64447
O      0.56276   -1.66713    5.10082
O      5.61218   -2.43200    5.08313
O      4.84530   -0.06636    5.70641
F      3.06133   -3.17046    4.56519
S      1.67533   -0.99739    4.44788
S      4.80106   -1.24563    4.85924
H      1.44772   -2.10382   -1.07465
H      5.36809    0.31099   -0.52113
H      0.96478   -3.91084    0.56294
H      2.01370    0.18434   -0.28166
H      5.33618   -2.10281    0.06881
H      5.11544    2.03787    1.24829
H      1.04750   -3.42905    3.00566
H      2.12907    0.65591    2.16491
H      5.10056   -2.79590    2.45386
H      4.81208    1.33793    3.63399
