25

C      4.75338    0.47628   -4.64640
C      4.25843   -0.20407   -3.56895
C      6.16975   -1.29891   -3.78140
C      1.91967   -1.04723   -3.21307
C     -0.09991   -2.03705   -2.48780
C      9.63944   -1.89560   -4.60166
C      2.94051    0.04017   -2.89946
N      5.07887   -1.20365   -3.07782
N      7.14775   -2.28186   -3.55904
O      1.93772   -1.77523   -4.18355
O      8.73269   -0.42205   -2.59622
O      9.17579   -2.91049   -2.18472
O      0.95054   -1.07053   -2.26865
S      6.29125   -0.17786   -5.12111
S      8.73812   -1.81199   -3.04675
H      4.31309    1.30752   -5.18111
H     -0.78127   -1.92070   -1.64533
H      0.31470   -3.04723   -2.51312
H     -0.61284   -1.83463   -3.43096
H     10.67636   -1.64413   -4.37147
H      9.55708   -2.90979   -4.99122
H      9.21551   -1.16543   -5.29168
H      3.06465    0.10467   -1.81540
H      2.51209    0.99148   -3.23169
H      6.81027   -2.99041   -2.90503
