28

C      2.04120    1.33851   -1.31178
C      5.40841    1.84280   -2.75479
C      4.19000    2.09079   -3.61358
C     -1.06014    1.61240   -0.76494
C     -0.58289   -0.77518   -1.02983
C      4.14750    1.04599   -2.52605
C     -1.46838    0.36032   -1.59167
C      1.41680    1.70790    0.04102
N      3.38574    1.31949   -1.32313
N      0.02844    1.14762    0.19353
O      1.32536    1.13589   -2.29415
O      0.05603   -0.28818    0.19146
O     -1.35421    0.53575   -2.97246
H      6.25626    1.31719   -3.18100
H      5.66666    2.60253   -2.02244
H      3.63418    3.00739   -3.44591
H      4.18771    1.73603   -4.63852
H     -0.66499    2.39653   -1.40411
H     -1.87476    1.99238   -0.14851
H     -1.14948   -1.65035   -0.71150
H      0.18784   -1.05118   -1.74913
H      4.13330    0.00051   -2.82065
H     -2.52226    0.14711   -1.40830
H      1.32619    2.79491    0.13443
H      1.98956    1.32389    0.88722
H      3.89335    1.39311   -0.44787
H     -0.26384    1.36358    1.15210
H     -0.41896    0.72300   -3.17899
