24

C      3.71862    1.65283   -4.53134
C      3.18428    0.67020   -3.74803
C      5.08603   -0.41902   -4.23966
C      2.16739    0.34266   -1.55134
C      2.81628   -1.58535   -0.32939
C      4.50568   -3.54014   -3.82547
C      1.87757    0.75219   -2.98612
N      3.92684   -0.47762   -3.59929
N      6.07838   -1.31520   -4.32988
O      2.52181    1.10585   -0.67049
O      5.84736   -2.30562   -1.91354
O      7.14588   -3.49679   -3.71896
O      2.04245   -0.99416   -1.39792
S      5.28464    1.13560   -5.13802
S      6.00743   -2.62735   -3.35450
H      3.31294    2.63162   -4.75292
H      2.40293   -2.58533   -0.18483
H      2.72676   -0.99594    0.58584
H      3.85775   -1.65187   -0.65828
H      4.47504   -4.43759   -3.20311
H      3.64592   -2.89570   -3.64101
H      4.59036   -3.80662   -4.88087
H      1.48764    1.77172   -3.00124
H      1.14273    0.06416   -3.41770
