25

C      4.17731    0.90251   -5.24737
C      3.65512    0.45370   -4.06608
C      5.22744   -1.08455   -4.32111
C      2.96338    1.60229   -1.91660
C      4.67442    2.68157   -0.69698
C      8.37925   -2.52885   -5.33371
C      2.54026    1.09073   -3.28943
N      4.26377   -0.67614   -3.54755
N      5.96877   -2.25285   -4.08024
O      2.27550    1.52787   -0.91813
O      8.01471   -0.74633   -3.40850
O      7.92190   -3.23384   -2.80777
O      4.18027    2.18129   -1.95751
S      5.46610   -0.13778   -5.77524
S      7.66659   -2.12807   -3.73116
H      3.90863    1.78601   -5.81131
H      5.66638    3.07739   -0.91236
H      4.73286    1.87090    0.03236
H      4.01677    3.46605   -0.31500
H      9.46264   -2.51255   -5.20153
H      8.03289   -3.52007   -5.62449
H      8.07299   -1.76909   -6.05338
H      2.13282    1.93931   -3.84830
H      1.72783    0.38007   -3.12222
H      5.54520   -2.80317   -3.33061
