22   

C        1.8238937838   -0.2070889764    0.1170455457
C        0.5374413847   -0.4647881682    0.5837179893
C        2.9231731622   -0.4412935445    0.9457545421
C        0.3551696630   -0.9612014402    1.8752615020
C        2.7602446371   -0.9282505904    2.2537354472
C        1.4492037497   -1.2002009208    2.7250431290
C        3.9531985060   -1.1290921218    3.0993932345
C        5.2694877430   -0.8026800157    2.8750549637
C        1.1983328955   -1.7642441443    4.1035144709
C        6.3746217888   -1.6108833429    2.2243155503
H        1.9718097887    0.1771394623   -0.8856538169
H       -0.3198395037   -0.2828044278   -0.0543814744
H        3.9180023467   -0.2317796836    0.5709698511
H       -0.6522450349   -1.1634610441    2.2200314171
H        3.7298488241   -1.3035487607    4.1440642933
H        5.7022178368   -0.3425201790    3.7570548184
H        1.7832100172   -2.6777523126    4.2492454166
H        1.4768369181   -1.0315677840    4.8668704764
H        0.1420662449   -2.0156361520    4.2379586975
H        7.1847198729   -1.7954642728    2.9363357044
H        5.9841739672   -2.5733418612    1.8799820443
H        6.7767262604   -1.0679620580    1.3641067530
22   

C        1.9183344414   -0.2777415110    0.1185839270
C        0.6174746718   -0.5044750577    0.5602170796
C        2.9921113965   -0.4761809892    0.9889904009
C        0.3952460324   -0.9337009291    1.8692726345
C        2.7888643338   -0.8920198415    2.3165916628
C        1.4628198812   -1.1326066201    2.7618781012
C        3.9509288606   -1.0579426601    3.2115149556
C        5.2683485942   -0.7942056483    2.9670551580
C        1.1704165104   -1.6401217445    4.1540499152
C        6.2419611261   -1.5944965357    2.1295795955
H        2.0972326934    0.0553856479   -0.8972531793
H       -0.2198949211   -0.3517619368   -0.1111348324
H        3.9967902488   -0.2881626965    0.6303157866
H       -0.6225419077   -1.1173186637    2.1933797436
H        3.7030021326   -1.1413231469    4.2621052735
H        5.7822489038   -0.4269998483    3.8489913822
H        1.7666145523   -2.5341698450    4.3621098612
H        1.4053136962   -0.8692992394    4.8939235380
H        0.1152341259   -1.9095609879    4.2590352132
H        7.0998470029   -1.9037224961    2.7342406739
H        5.7522086434   -2.4888576011    1.7321632250
H        6.5998651539   -0.9888065940    1.2919910070
22   

C        1.9917915768   -0.3489969462    0.1221959843
C        0.6818365640   -0.5520886103    0.5468538192
C        3.0465616484   -0.4987247894    1.0249047450
C        0.4314157671   -0.9073549612    1.8724887906
C        2.8154364435   -0.8377613234    2.3709119676
C        1.4791243420   -1.0523457069    2.7983626743
C        3.9496860461   -0.9540397934    3.3096488035
C        5.2718480682   -0.8033437466    3.0405424708
C        1.1576180086   -1.4986861570    4.2049747516
C        6.1010109956   -1.6096942927    2.0681300118
H        2.1926159619   -0.0702728273   -0.9058463106
H       -0.1404884287   -0.4390205953   -0.1504459973
H        4.0551494667   -0.3217883797    0.6738540290
H       -0.5927761064   -1.0783270903    2.1830016268
H        3.6919865554   -0.9501577473    4.3614398414
H        5.8576031188   -0.5054431466    3.9034995744
H        1.7703396447   -2.3648704621    4.4744884034
H        1.3488639999   -0.6868391384    4.9125504236
H        0.1078217188   -1.7947357189    4.2909099714
H        6.9752435113   -2.0296848817    2.5745421969
H        5.5088771478   -2.4316259216    1.6536663357
H        6.4424832346   -0.9718322924    1.2476946375
22   

C        2.0318559515   -0.3945843752    0.1304415702
C        0.7175281375   -0.5867459103    0.5443889080
C        3.0749004803   -0.5037359746    1.0522010310
C        0.4508629742   -0.8874261262    1.8797628188
C        2.8291929341   -0.7905430184    2.4091641409
C        1.4862260176   -0.9883273218    2.8252507378
C        3.9408906428   -0.8659347598    3.3788418925
C        5.2662531168   -0.8478981216    3.1106868506
C        1.1461876670   -1.3889987536    4.2413210686
C        5.9805488523   -1.6240643588    2.0322286914
H        2.2454052309   -0.1531388274   -0.9044503239
H       -0.0953679450   -0.5065884749   -0.1683570843
H        4.0820376700   -0.3226404676    0.7023681669
H       -0.5766025768   -1.0524808047    2.1824842577
H        3.6784648517   -0.8008390014    4.4276076550
H        5.8956558872   -0.6283567449    3.9663014829
H        1.7706009843   -2.2319425058    4.5544856582
H        1.3063247177   -0.5480944998    4.9219545797
H        0.1016393905   -1.7056825904    4.3174469185
H        6.8492915246   -2.1381801315    2.4542169100
H        5.3150212233   -2.3740221515    1.5932338106
H        6.3252582594   -0.9468398388    1.2453357307
22   

C        2.0535810284   -0.4207018419    0.1368668717
C        0.7393586310   -0.6100145034    0.5501546751
C        3.0934586899   -0.4962644930    1.0653316583
C        0.4694986461   -0.8706701997    1.8927206510
C        2.8468140678   -0.7478440385    2.4304152912
C        1.5013860231   -0.9355559140    2.8452690195
C        3.9458931223   -0.7887228665    3.4177773021
C        5.2640742623   -0.9128678013    3.1642209043
C        1.1560978402   -1.3032151849    4.2691385004
C        5.8994606687   -1.6321136966    2.0022226780
H        2.2696894072   -0.2045928274   -0.9030929965
H       -0.0707969560   -0.5570591969   -0.1682305346
H        4.0952100349   -0.3033631047    0.7093363887
H       -0.5580709767   -1.0344215989    2.1957065823
H        3.6843034485   -0.6786665379    4.4630944927
H        5.9159469236   -0.7730988366    4.0197200634
H        1.7924247742   -2.1260213020    4.6107854974
H        1.2943810589   -0.4413585865    4.9278237518
H        0.1172229352   -1.6382710043    4.3446022841
H        6.7612558774   -2.2091084956    2.3507465614
H        5.1911202276   -2.3263976806    1.5395038360
H        6.2474062976   -0.9131202676    1.2547841446
22   

C        2.0629796361   -0.4432213007    0.1397020395
C        0.7492917118   -0.6222580655    0.5573865971
C        3.1032782467   -0.4975046009    1.0690273998
C        0.4803157129   -0.8485757626    1.9058952023
C        2.8595696995   -0.7188581567    2.4407434345
C        1.5125301487   -0.8905700593    2.8594949858
C        3.9528406501   -0.7386497734    3.4356488000
C        5.2544893322   -0.9988925713    3.2117394484
C        1.1655652223   -1.2283323263    4.2905066539
C        5.8636128270   -1.6272916029    1.9867068803
H        2.2785436754   -0.2496190236   -0.9048032375
H       -0.0610118236   -0.5867518498   -0.1619059377
H        4.1005926527   -0.3026603504    0.7039114176
H       -0.5471946511   -1.0048275839    2.2129413930
H        3.6914950703   -0.6005129964    4.4777064968
H        5.9040451742   -0.9403749391    4.0783408535
H        1.8047225575   -2.0405463574    4.6517839519
H        1.2975129957   -0.3516190149    4.9304995502
H        0.1284680646   -1.5678373635    4.3705945697
H        6.7294477931   -2.2304570700    2.2758382610
H        5.1481019886   -2.2880746525    1.4877514309
H        6.2052062165   -0.8549921090    1.2913246353
22   

C        2.0589636288   -0.4656191689    0.1389580838
C        0.7457546519   -0.6236756472    0.5652209551
C        3.1026179622   -0.5086507732    1.0650476895
C        0.4806074525   -0.8162938495    1.9193643508
C        2.8641086041   -0.6975869135    2.4429809536
C        1.5161818853   -0.8455653349    2.8698583281
C        3.9580651193   -0.7077045078    3.4381311429
C        5.2327158947   -1.0947516037    3.2469790540
C        1.1703436144   -1.1534234635    4.3080243554
C        5.8574555298   -1.6106930191    1.9790487789
H        2.2718154903   -0.2962093316   -0.9102981765
H       -0.0670204605   -0.5978164013   -0.1516903949
H        4.0970982240   -0.3253740992    0.6880796144
H       -0.5469111365   -0.9575771307    2.2334915256
H        3.6968005483   -0.5531447648    4.4778475137
H        5.8635514166   -1.1164573934    4.1289939214
H        1.8048312975   -1.9629766786    4.6833607848
H        1.3089843255   -0.2656167038    4.9309825334
H        0.1315552722   -1.4855489779    4.3967289519
H        6.7412419873   -2.2074330278    2.2237617143
H        5.1624217311   -2.2565638455    1.4340256348
H        6.1776743550   -0.7791711584    1.3444353313
22   

C        2.0671777632   -0.4349999929    0.1363004403
C        0.7549784817   -0.4523378750    0.5946924820
C        3.0975245718   -0.9010949461    0.9548075537
C        0.4772957393   -0.9426990275    1.8692444892
C        2.8446591691   -1.4084809087    2.2465575105
C        1.4988824527   -1.4315440905    2.7022951169
C        3.9260596001   -1.9396228117    3.1032682177
C        5.2378426250   -1.6446831955    3.0370857067
C        1.1458388704   -1.8661716943    4.1054059778
C        5.8809450618   -0.4963587654    2.3060412440
H        2.2888977027   -0.0711218529   -0.8603810594
H       -0.0474115820   -0.0858263814   -0.0354453335
H        4.0924040901   -0.9137582888    0.5353243496
H       -0.5482975512   -0.9322530838    2.2192708525
H        3.6481076202   -2.5851507400    3.9274683754
H        5.8749510615   -2.1620607334    3.7461399850
H        1.2420809529   -2.9510279000    4.2026222303
H        1.8062536143   -1.3772337041    4.8289581181
H        0.1192328532   -1.5816048928    4.3551056586
H        6.2061575191   -0.8119298720    1.3103804930
H        5.1926203156    0.3502614383    2.2224332238
H        6.7619351920   -0.1568685251    2.8589233752
22   

C        2.0580580494   -0.4500265586    0.1255978401
C        0.7448753381   -0.4554804789    0.5831433667
C        3.0867069783   -0.8996168009    0.9555685569
C        0.4646804473   -0.9146918989    1.8691705360
C        2.8291081864   -1.3790193285    2.2561006250
C        1.4846685145   -1.3855407119    2.7143208614
C        3.9150337739   -1.8907034038    3.1183492119
C        5.2400121978   -1.6998802725    2.9590494615
C        1.1313425118   -1.7924700922    4.1254796871
C        5.9150569331   -0.5078940355    2.3307756808
H        2.2817189735   -0.1067061973   -0.8779107524
H       -0.0564149939   -0.1027209616   -0.0561754562
H        4.0866941189   -0.9159320506    0.5466615331
H       -0.5612954143   -0.8951101552    2.2177456119
H        3.6353682621   -2.5142682237    3.9586950231
H        5.8747524520   -2.2830270779    3.6173789253
H        1.2329787359   -2.8746665915    4.2450941146
H        1.7886209917   -1.2857879488    4.8395533823
H        0.1026662739   -1.5087000243    4.3673852512
H        6.2499509034   -0.7510358748    1.3181494734
H        5.2363969826    0.3500314101    2.2951330147
H        6.7901697484   -0.2236502012    2.9227784402
22   

C        2.0349158508   -0.4713343358    0.1039469555
C        0.7226280582   -0.4753433269    0.5661282486
C        3.0700336769   -0.8861219972    0.9441739214
C        0.4500562456   -0.8946632276    1.8678994118
C        2.8177360668   -1.3290617652    2.2572417952
C        1.4769584284   -1.3284082122    2.7243150978
C        3.9198344465   -1.7996901563    3.1208236859
C        5.2469771090   -1.7224261708    2.8729396210
C        1.1332241357   -1.7012183211    4.1470860596
C        5.9987333743   -0.5274471151    2.3412925180
H        2.2527708827   -0.1538203889   -0.9092784549
H       -0.0840022914   -0.1507879680   -0.0813624868
H        4.0748887552   -0.8952978897    0.5445811948
H       -0.5751104823   -0.8744251203    2.2188890003
H        3.6430914464   -2.3851400022    3.9889662332
H        5.8587634369   -2.3712128427    3.4903669016
H        1.2588557630   -2.7770967526    4.2978596713
H        1.7801811364   -1.1600708098    4.8450258660
H        0.0983397669   -1.4343999222    4.3815793830
H        6.3304812605   -0.7159203287    1.3160705813
H        5.3631388336    0.3635844869    2.3540592697
H        6.8787099383   -0.3326812365    2.9616238205
22   

C        1.9937622404   -0.4944365870    0.0766004075
C        0.6846623868   -0.4949487241    0.5497208124
C        3.0389929569   -0.8712666111    0.9223820067
C        0.4256542830   -0.8694793881    1.8683869624
C        2.7983672414   -1.2711830044    2.2498843775
C        1.4633083186   -1.2623124329    2.7314568481
C        3.9214517437   -1.6985684586    3.1090830210
C        5.2419759419   -1.7308743493    2.7963906330
C        1.1351941500   -1.5976756477    4.1670718376
C        6.1077973731   -0.5631689280    2.3833631955
H        2.2011218922   -0.2070122193   -0.9477409445
H       -0.1301939289   -0.2013046436   -0.1022069134
H        4.0466370083   -0.8760821093    0.5268578751
H       -0.5971069211   -0.8480638012    2.2263251415
H        3.6481882837   -2.2394864115    4.0065492943
H        5.8064744832   -2.4531002280    3.3762826873
H        1.2883600102   -2.6649516977    4.3508522349
H        1.7722005301   -1.0193168884    4.8438880027
H        0.0946747691   -1.3507362406    4.3982531814
H        6.4446434643   -0.6929114414    1.3507600159
H        5.5447313632    0.3725664741    2.4563093988
H        6.9850504788   -0.4945415644    3.0336142784
22   

C        1.9185618314   -0.5525210176    0.0360077330
C        0.6188309799   -0.5409067506    0.5352538363
C        2.9844482764   -0.8698183986    0.8805124578
C        0.3900130611   -0.8417425981    1.8785286158
C        2.7739010709   -1.1922928157    2.2327078900
C        1.4493738636   -1.1698437705    2.7423154499
C        3.9266234170   -1.5531267161    3.0810851179
C        5.2385905003   -1.6996196582    2.7315325726
C        1.1515604558   -1.4443293670    4.1973708970
C        6.2506737079   -0.6176219663    2.4240520013
H        2.1025696056   -0.3193240040   -1.0064242325
H       -0.2124402979   -0.2955830289   -0.1159192371
H        3.9881241474   -0.8807370256    0.4732122568
H       -0.6263721125   -0.8163322078    2.2539867539
H        3.6651013633   -2.0151940523    4.0246188368
H        5.7264094848   -2.4872281136    3.2958484964
H        1.3504843754   -2.4941904078    4.4318563962
H        1.7723798969   -0.8077374886    4.8356442856
H        0.1039032815   -1.2310470964    4.4296510628
H        6.6016710490   -0.7166667636    1.3927887086
H        5.7965743022    0.3704764949    2.5470764651
H        7.1086473235   -0.6958278499    3.0985684428
22   

C        1.8215680894   -0.6081662255   -0.0009521676
C        0.5369179995   -0.5839041233    0.5359257460
C        2.9148658969   -0.8748457785    0.8258536037
C        0.3506658767   -0.8206526788    1.8986416112
C        2.7473863716   -1.1288996072    2.1976765631
C        1.4385474959   -1.0939699860    2.7459728794
C        3.9329503842   -1.4362005917    3.0214303385
C        5.2415866369   -1.6451174488    2.6562640925
C        1.1845712265   -1.3152879824    4.2183103526
C        6.3814341860   -0.6558966561    2.5141390567
H        1.9726073312   -0.4235959300   -1.0583251329
H       -0.3158009007   -0.3795797075   -0.1015234930
H        3.9081870566   -0.8951789777    0.3934833166
H       -0.6550003336   -0.7905329020    2.3016152379
H        3.6992807435   -1.8194280926    4.0064155342
H        5.6461094879   -2.5098999003    3.1714710169
H        1.4276998454   -2.3463914254    4.4918122795
H        1.7960195869   -0.6299771897    4.8135397061
H        0.1349308172   -1.1324310725    4.4668885091
H        6.7794740337   -0.6893170760    1.4958774138
H        6.0267368878    0.3588479294    2.7186471914
H        7.1858833089   -0.8944908677    3.2164458741
