41

C      2.05097   -0.40035    0.22998
C     -4.89495   -1.23213    1.08869
C     -4.81786   -0.36099   -1.15716
C     -6.18223   -0.71079    1.26054
C     -6.10208    0.16756   -1.00882
C     -2.40361   -1.73410   -4.07054
C     -0.81419   -2.71098   -3.09901
C     -4.19705   -1.06874   -0.11521
C     -6.76090   -0.01821    0.20342
C      0.56176    1.55975    0.20637
C      0.42034   -0.19174    2.02329
C     -2.79023   -1.59819   -0.28408
C     -1.76956   -0.44981   -0.15025
C      0.10018   -0.68600   -1.87119
C      0.67013    0.04908    0.51371
C     -0.29247   -0.84175   -0.37889
N      3.11519   -0.80916   -0.00421
N     -1.82610   -2.96223   -3.91933
N     -1.81320   -0.75016   -3.39907
N     -0.78261   -1.39596   -2.77776
O     -0.14352   -2.21380   -0.00109
F     -8.01274    0.49242    0.35684
H     -4.43205   -1.78101    1.90585
H     -4.28687   -0.22428   -2.09601
H     -6.73209   -0.83829    2.18811
H     -6.59257    0.71146   -1.81060
H     -3.27207   -1.55731   -4.69203
H     -0.10177   -3.42974   -2.71765
H     -0.46898    1.89404    0.34526
H      0.87594    1.80631   -0.80956
H      1.19713    2.12217    0.89551
H     -0.51309    0.28152    2.33491
H      0.36565   -1.25783    2.24832
H      1.23067    0.25173    2.60734
H     -2.69648   -2.08879   -1.25344
H     -2.57669   -2.35637    0.47223
H     -1.89524   -0.02472    0.84776
H     -2.03079    0.34132   -0.85771
H      1.11775   -1.05446   -2.02685
H      0.06868    0.35929   -2.17556
H      0.79694   -2.45599   -0.07163
