35

C      3.17565    1.32934   -1.11014
C     -2.13157   -4.23280   -5.22903
C     -3.97308   -4.49687   -3.69687
C     -1.50563   -3.35377   -4.35292
C     -3.35792   -3.61623   -2.80641
C      1.91519    0.69250   -0.87849
C     -3.37464   -4.81989   -4.92259
C      1.36499   -0.16949   -1.80991
C     -2.12102   -3.03793   -3.12710
C      0.10488   -0.77733   -1.52718
C      1.26293    1.01173    0.38839
C     -0.54500   -0.47893   -0.29914
C     -4.04784   -5.74983   -5.90274
C      2.05207   -0.48599   -3.10960
C     -0.71924    0.63393    1.85672
N      4.20448    1.83153   -1.33007
N     -1.56526   -2.16190   -2.17509
N     -0.43249   -1.63313   -2.46129
N      0.00350    0.36568    0.60316
O      1.71268    1.76761    1.24003
O     -1.70499   -1.00906    0.01362
H     -1.64911   -4.47465   -6.17373
H     -4.93063   -4.93949   -3.43337
H     -0.54762   -2.90828   -4.59737
H     -3.82735   -3.37195   -1.85697
H     -3.32683   -6.43128   -6.36515
H     -4.82193   -6.35106   -5.41825
H     -4.52549   -5.18396   -6.71182
H      2.23058   -1.56231   -3.18804
H      3.00114    0.04191   -3.19768
H      1.40897   -0.21243   -3.95108
H     -0.86203   -0.29770    2.40758
H     -1.69535    1.06939    1.63461
H     -0.11459    1.32899    2.43412
H     -1.94559   -1.62385   -0.81370
