27

C     -0.59591    2.32729   -2.20278
C      3.42408   -0.75172    2.66932
C      2.09645   -0.43581    2.95641
C      3.77317   -1.29962    1.43121
C      1.43619   -1.21008    0.75403
C     -1.79723    2.00094   -1.52579
C      1.09022   -0.64451    1.99607
C      2.76751   -1.53211    0.49045
C     -1.90489    1.22999   -0.38827
C     -3.87697    1.90877   -1.01773
C     -0.30452   -0.30658    2.35188
C     -5.35190    2.02284   -0.88242
N      0.43308    2.55551   -2.70593
N     -3.08438    2.41444   -1.90277
N     -1.24218    0.20612    1.63007
N     -0.97149    0.52630    0.32557
O     -3.21140    1.15548   -0.04772
Cl     3.18151   -2.25140   -1.05291
H      4.19720   -0.57527    3.41183
H      1.83404   -0.01578    3.92389
H      4.80363   -1.55025    1.20095
H      0.67548   -1.44514    0.01714
H     -0.60249   -0.48410    3.38407
H     -5.82504    1.03608   -0.90997
H     -5.62058    2.49786    0.06670
H     -5.73220    2.62724   -1.70642
H     -0.00520    0.66653    0.02772
