48

C      2.65653   -6.91493    6.16177
C      2.89806   -5.87438    7.01917
C      1.03892   -5.57959    5.44580
C      1.08751   -1.54926    1.85385
C      2.13685   -0.98045    4.48497
C      0.72901   -1.55600    4.38634
C     -0.93925   -2.70973    2.81906
C      2.37599    1.69297    0.91096
C      3.96231   -0.23314    0.58747
C      2.34912    0.02311    3.36066
C     -0.89488   -4.21872    2.49197
C      1.26977   -3.72462    3.08857
C      2.97996    2.29757   -0.36073
C      4.48114    0.49965   -0.65286
C      2.50338    0.16498    0.85649
C      0.54662   -2.31846    3.06575
C     -0.12379   -5.06793    4.63928
N      1.61036   -6.74056    5.28402
N      1.96091   -0.50769    2.04925
N      0.24530   -4.76177    3.24892
O      0.77036   -1.92200    0.71694
O      4.34319    1.91547   -0.53137
S      1.76083   -4.60359    6.72148
H      3.22024   -7.84159    6.13932
H      3.65216   -5.79559    7.79119
H      2.29189   -0.47420    5.44363
H      2.88145   -1.78161    4.41860
H      0.51946   -2.21789    5.23191
H      0.00001   -0.73622    4.44205
H     -1.38706   -2.13081    2.01009
H     -1.51954   -2.52714    3.73016
H      2.91119    2.10428    1.77361
H      1.32236    1.98446    0.99766
H      4.02575   -1.31603    0.43437
H      4.59657    0.02489    1.44394
H      1.77194    0.93371    3.57343
H      3.40188    0.31847    3.31416
H     -1.81748   -4.75123    2.73980
H     -0.69283   -4.35390    1.42538
H      1.75987   -3.89189    2.12593
H      2.03041   -3.79444    3.86763
H      2.39357    1.98746   -1.24115
H      2.97446    3.38976   -0.31611
H      5.54673    0.31142   -0.80673
H      3.93903    0.15101   -1.54691
H      1.89824   -0.19906    0.02415
H     -0.87385   -5.86432    4.60520
H     -0.58002   -4.22026    5.17777
