31

C     -0.55199    4.91530    0.21932
C     -0.86368    6.07011    0.90494
C      2.00369   -3.02309    0.97069
C      1.92177   -2.99846   -0.39696
C      1.49171   -1.72882   -0.90340
C     -0.13974    3.80755    0.98535
C      1.24654   -0.81118    0.10307
C     -0.74814    6.05735    2.30898
C      0.21227    2.53369    0.32671
C      0.80997    0.55260   -0.00068
C      1.66718   -3.88110   -2.53520
C      1.95427   -2.48433   -3.06204
C     -1.06596    7.27188    3.13991
N     -0.04492    3.84266    2.31919
N     -0.34858    4.96388    2.97605
N      0.61477    1.39670    0.98449
N      0.15562    2.41764   -0.98702
O      0.55429    1.09102   -1.21933
O      2.22181   -4.05327   -1.21899
O      1.33641   -1.48100   -2.23050
S      1.55894   -1.50695    1.67840
H     -0.61489    4.84174   -0.86162
H     -1.18985    6.96800    0.38602
H      2.29879   -3.85923    1.59078
H      0.58548   -4.06239   -2.50298
H      2.14150   -4.63557   -3.16572
H      3.03501   -2.30306   -3.09711
H      1.53058   -2.34697   -4.05849
H     -2.10006    7.59628    2.97946
H     -0.92682    7.04176    4.19731
H     -0.41405    8.11051    2.87091
