15

C      0.11941   -0.19083    1.03010
C      1.59750   -1.38291    2.53639
C     -0.93705   -0.89841    1.60564
C      1.40058   -0.45195    1.51773
C      0.45432   -2.02629    3.03027
C      2.16188   -3.43094    4.80631
N     -0.78334   -1.79792    2.58430
F      2.70985   -2.28600    5.27559
F      2.95809   -3.85729    3.79837
F      2.21249   -4.34818    5.79030
S      0.41347   -3.26054    4.33127
Cl     2.77589    0.39170    0.85026
H     -0.05033    0.53018    0.23821
H      2.59275   -1.58147    2.91004
H     -1.95667   -0.73409    1.26326
