31

C     -1.21028    4.53756    1.64874
C     -1.12156    5.90420    1.48994
C      2.49045   -2.80085    0.04699
C      1.39455   -3.30116    0.70002
C      0.49630   -2.27540    1.14094
C     -0.17188    3.76060    1.09926
C      0.93981   -1.00550    0.81572
C     -0.00862    6.41862    0.79595
C     -0.19262    2.28959    1.22594
C      0.32473    0.26471    1.07959
C      0.17372   -4.83795    1.95050
C     -1.03071   -3.93419    1.74180
C      0.17064    7.89672    0.57317
N      0.86704    4.29468    0.44753
N      0.94626    5.61836    0.29789
N      0.77132    1.44689    0.72754
N     -1.18306    1.68209    1.85234
O     -0.84686    0.32141    1.76130
O      1.15055   -4.63263    0.91453
O     -0.65302   -2.54428    1.81448
S      2.46082   -1.07238   -0.04754
H     -2.03438    4.06155    2.17036
H     -1.88265    6.57229    1.88524
H      3.31054   -3.36531   -0.37675
H      0.63163   -4.64436    2.92868
H     -0.11771   -5.88823    1.88936
H     -1.49075   -4.12872    0.76577
H     -1.77237   -4.08250    2.52871
H      0.20016    8.43568    1.52658
H      1.10201    8.07796    0.03455
H     -0.66141    8.30736   -0.00969
