24   

C       -4.2534866681   -1.0923284891    5.2354966647
C       -4.4072107069   -0.5769577554    3.9335684641
C       -2.0772038047   -1.5831364189    4.7813877349
C       -2.2078640651   -1.0693933529    3.4642388893
C       -1.1513787710   -0.5771747403    1.2116694518
C       -0.0365808365   -0.5511808993    0.4173173485
C       -1.0318912658   -1.0975458541    2.5615122465
C       -0.9538949397    0.9615108802   -1.2966362010
C        1.3946553405    0.0113500320   -1.4857979483
N       -3.0894708037   -1.6007625147    5.6753550429
N       -3.4001027179   -0.5586914942    3.0426386935
N        0.1311845658    0.1350126058   -0.7389896955
O        0.0352575515   -1.5613237268    2.9578161183
H       -5.1062369203   -1.0767190608    5.9038373402
H       -5.3716286741   -0.1805679707    3.6384553233
H       -1.1226702873   -1.9852389434    5.1009307548
H       -2.0825222809   -0.1364654345    0.8856938165
H        0.8383900228   -1.0822088426    0.7849704865
H       -1.3010481648    1.6871233713   -0.5541550046
H       -1.7912520811    0.3274427068   -1.6055173979
H       -0.6035283986    1.5170444934   -2.1722552498
H        1.2649110499   -0.6738840570   -2.3298094713
H        2.1931996338   -0.3740855908   -0.8437878120
H        1.7117626052    0.9887513969   -1.8626121986
24   

C       -4.2321306037   -1.0184015014    5.2397912730
C       -4.4227833293   -0.6467574260    3.8945269479
C       -2.0484020762   -1.4872749318    4.7980482040
C       -2.2158691723   -1.1168179421    3.4377707541
C       -1.2022955628   -0.8069492570    1.1327491529
C       -0.0831200804   -0.7225167118    0.3445910135
C       -1.0511098473   -1.1927808280    2.5234116666
C       -0.9490054360    0.9947633210   -1.1926185935
C        1.3969193006    0.0508673465   -1.4444758611
N       -3.0456723526   -1.4429193194    5.7078433940
N       -3.4306696144   -0.6903548843    2.9878307493
N        0.1175053245    0.0964684538   -0.7163210281
O        0.0386582794   -1.5742498422    2.9448381144
H       -5.0741993003   -0.9582425124    5.9190583057
H       -5.4038796816   -0.3125552040    3.5781487796
H       -1.0758801119   -1.8224403678    5.1397949027
H       -2.1488443759   -0.4115996738    0.7929373670
H        0.7925923656   -1.2637230728    0.6955714613
H       -1.3280936803    1.6081130671   -0.3689513869
H       -1.7709779874    0.4115791647   -1.6201910960
H       -0.5674758430    1.6691424236   -1.9657358695
H        1.2836680752   -0.5341234275   -2.3630250232
H        2.1796437430   -0.4090705259   -0.8327751235
H        1.7255020042    1.0625941889   -1.7018596601
24   

C       -4.1910170009   -0.9196954185    5.2363421836
C       -4.4144875543   -0.6940153928    3.8640377314
C       -1.9946490915   -1.3391590647    4.8070351507
C       -2.1950694572   -1.1149880434    3.4196197524
C       -1.2221540780   -0.9951239950    1.0789230888
C       -0.1104440819   -0.8616522626    0.2803462004
C       -1.0389014641   -1.2300990674    2.4984524936
C       -0.9410768829    1.0288672353   -1.0562647944
C        1.3948266938    0.0869947469   -1.4009067188
N       -2.9815014263   -1.2450869663    5.7244561090
N       -3.4328839834   -0.7875216033    2.9497747388
N        0.1101841978    0.0671360986   -0.6809429263
O        0.0735508687   -1.5155440676    2.9360017588
H       -5.0262731826   -0.8260887783    5.9202236860
H       -5.4128723799   -0.4341716389    3.5322717862
H       -1.0041240074   -1.5966846688    5.1640359979
H       -2.1866164119   -0.6548085820    0.7295935864
H        0.7678852609   -1.4147012311    0.6056383240
H       -1.3372748040    1.5289732302   -0.1667139577
H       -1.7552453614    0.5141550734   -1.5765416386
H       -0.5383959268    1.7985803630   -1.7221755385
H        1.2829671230   -0.3940982248   -2.3780582610
H        2.1680901791   -0.4446665324   -0.8372172660
H        1.7354045952    1.1169994463   -1.5453456206
24   

C       -4.1565173635   -0.8107502014    5.2137467364
C       -4.4050936086   -0.7370208376    3.8292908366
C       -1.9466884894   -1.1666163619    4.7953983437
C       -2.1723505506   -1.0950275810    3.3957702963
C       -1.2278250986   -1.1769450052    1.0417766891
C       -0.1363085179   -1.0005074660    0.2132370898
C       -1.0210837146   -1.2459163426    2.4735240764
C       -0.9492253558    1.0298550269   -0.9038770547
C        1.3673009265    0.0944771413   -1.3771480262
N       -2.9274536465   -1.0268309572    5.7136069787
N       -3.4297173650   -0.8768527737    2.9143486031
N        0.0891567358    0.0159717419   -0.6496483034
O        0.1106332522   -1.4231202607    2.9183076049
H       -4.9881929728   -0.6875022357    5.8972956300
H       -5.4182351920   -0.5593628520    3.4881605181
H       -0.9410064045   -1.3390961524    5.1611107863
H       -2.2125005286   -0.9076098919    0.6865581789
H        0.7473755780   -1.5660502405    0.5001516985
H       -1.3437892174    1.4193152847    0.0400977295
H       -1.7671957281    0.5945088445   -1.4867932307
H       -0.5342390995    1.8725378034   -1.4657690140
H        1.2361294020   -0.2660329146   -2.4026231495
H        2.1343435980   -0.5154577969   -0.8893476503
H        1.7283592060    1.1272870421   -1.4035323570
24   

C       -4.1297901599   -0.7227602784    5.1689836236
C       -4.3949975771   -0.8061027949    3.7882352348
C       -1.9052629125   -0.9787909787    4.7545426259
C       -2.1476230704   -1.0648386441    3.3586285869
C       -1.2183900738   -1.3388691455    1.0146078211
C       -0.1552188538   -1.1293624677    0.1424300428
C       -0.9971777362   -1.2357045441    2.4386459039
C       -0.9374288649    1.0226745573   -0.7295732832
C        1.3308246271    0.0748106514   -1.3800927087
N       -2.8848432972   -0.8085792375    5.6689700158
N       -3.4208425397   -0.9767202938    2.8773252624
N        0.0728800027   -0.0445770503   -0.6234618472
O        0.1485306590   -1.2881103619    2.8791933487
H       -4.9616154044   -0.5834425949    5.8492572938
H       -5.4203952112   -0.7279339604    3.4463766774
H       -0.8873095530   -1.0498053179    5.1200530380
H       -2.2231962089   -1.1606151750    0.6580859339
H        0.7282629710   -1.7216794865    0.3685996144
H       -1.2950409065    1.3128656131    0.2636175126
H       -1.7840468291    0.6826132509   -1.3344459805
H       -0.5084662929    1.9118261984   -1.2022938877
H        1.1547136470   -0.1552772002   -2.4359304971
H        2.0876415255   -0.6163620374   -0.9956334958
H        1.7313552049    1.0898334628   -1.2960141704
24   

C       -4.1395054623   -0.9098352347    5.3196751856
C       -4.4542215344   -1.3095134355    4.0062839878
C       -2.1238815396   -0.1347670230    4.5978000527
C       -2.4161993460   -0.5334039557    3.2668630316
C       -1.6524061687   -0.7380593230    0.8556710597
C       -0.5977991070   -0.9828354996   -0.0419927085
C       -1.3905066287   -0.3283084912    2.2149040421
C       -0.2485671110    1.3597664971   -0.6109750896
C        0.9706258346   -0.4926869200   -1.8446786861
N       -2.9749587161   -0.3150306943    5.6310850890
N       -3.6098841113   -1.1256946142    2.9760116726
N       -0.0331895475   -0.0787168568   -0.8505829540
O       -0.2998973617    0.1556792642    2.5055158255
H       -4.8638024007   -1.0914803988    6.1048558244
H       -5.4090270639   -1.7866514494    3.8190604930
H       -1.1700912043    0.3330505995    4.8130353856
H       -2.5796717193   -1.2676207089    0.6869931596
H       -0.4874055359   -2.0190437493   -0.3480379945
H       -1.3169205103    1.5780483720   -0.5153263340
H        0.1383329131    1.9494736552   -1.4478193884
H        0.2669436841    1.6728721400    0.3027226994
H        0.7436457196   -0.0477638885   -2.8185399907
H        0.9815268761   -1.5806863990   -1.9642059495
H        1.9677122431   -0.1719618239   -1.5257719441
24   

C       -4.0863889434   -0.8308553224    5.3035151543
C       -4.4016689791   -1.3390951286    4.0283426329
C       -2.1120459661   -0.0356858278    4.4952341174
C       -2.4053768133   -0.5424654443    3.2014549984
C       -1.6704110245   -0.8971669345    0.8017764989
C       -0.6427459250   -1.0746836508   -0.1276012808
C       -1.4059907922   -0.3667819504    2.1185802547
C       -0.2830107544    1.3211274115   -0.5257095488
C        0.9838826765   -0.4431901692   -1.8308164153
N       -2.9418903930   -0.1714180750    5.5522653750
N       -3.5779937609   -1.2012800467    2.9743720843
N       -0.0356841461   -0.1021281923   -0.8251401556
O       -0.3404360908    0.1935398434    2.3611015444
H       -4.7935270350   -0.9797077633    6.1109192373
H       -5.3401775651   -1.8633348727    3.8915554393
H       -1.1754151764    0.4839891036    4.6612742832
H       -2.5508085150   -1.5165085486    0.7008858440
H       -0.5773037926   -2.0691777482   -0.5591450073
H       -1.3431273656    1.4969593772   -0.3178397469
H       -0.0086678445    1.9437450468   -1.3828493558
H        0.3118799181    1.6376836308    0.3367068525
H        0.8045656633    0.1125037856   -2.7565108653
H        0.9610475389   -1.5112872856   -2.0690274465
H        1.9804196801   -0.1962226624   -1.4504122452
24   

C       -4.0703856985   -0.7897549654    5.2711226484
C       -4.3644160665   -1.3798531503    4.0265456030
C       -2.1193422674    0.0206857382    4.4225996280
C       -2.3916741295   -0.5674420793    3.1587218219
C       -1.6434146842   -1.0349694144    0.7869596276
C       -0.6717114441   -1.1362251631   -0.2011565663
C       -1.3992329374   -0.4120430837    2.0656800810
C       -0.3063985564    1.2885270218   -0.4852148660
C        0.9922380158   -0.4174767933   -1.8290492834
N       -2.9481044520   -0.0816112950    5.4842480981
N       -3.5414212307   -1.2765574769    2.9681211527
N       -0.0237050764   -0.1245103156   -0.8044243313
O       -0.3601640994    0.2054860581    2.2814049902
H       -4.7760204609   -0.9137957093    6.0840153300
H       -5.2859398795   -1.9395721164    3.9177757394
H       -1.2012052215    0.5799613936    4.5609070276
H       -2.4818573749   -1.7153178074    0.7310846252
H       -0.6436281882   -2.0894046784   -0.7209866172
H       -1.3510378263    1.4228879623   -0.1879887248
H       -0.1335799776    1.9183314869   -1.3632359518
H        0.3462112444    1.6343163412    0.3224533314
H        0.8390808079    0.2146041358   -2.7093541462
H        0.9374261416   -1.4618584581   -2.1521107488
H        1.9928734724   -0.2333097901   -1.4246663313
24   

C       -4.0643885362   -0.7849830199    5.2646535034
C       -4.3173483539   -1.4485457248    4.0484276260
C       -2.1369537853    0.0621134194    4.3981845206
C       -2.3688228268   -0.5980747882    3.1619400263
C       -1.5839466990   -1.1410987087    0.8205544347
C       -0.6917623998   -1.1569314940   -0.2359213362
C       -1.3770794820   -0.4434855110    2.0676102065
C       -0.3212536661    1.2827330764   -0.4374753284
C        0.9796610995   -0.3796690913   -1.8267964328
N       -2.9744203246   -0.0219835483    5.4546132659
N       -3.4852383585   -1.3644744813    2.9954761789
N       -0.0133507653   -0.1221979762   -0.7701481082
O       -0.3744174319    0.2367586034    2.2640299866
H       -4.7759436921   -0.8959910305    6.0742610699
H       -5.2144286015   -2.0495999564    3.9573229010
H       -1.2457255199    0.6672772811    4.5180322525
H       -2.3751073396   -1.8778104805    0.8005267783
H       -0.6996476624   -2.0718372088   -0.8211708394
H       -1.3525600564    1.3873928120   -0.0868134738
H       -0.2127969526    1.9162985828   -1.3229861582
H        0.3619471861    1.6491580246    0.3351108456
H        0.8488984004    0.3238406677   -2.6550313165
H        0.8747757759   -1.3921302411   -2.2293344403
H        1.9908764233   -0.2710600738   -1.4215109710
24   

C       -4.0803564695   -0.7796117657    5.2844750191
C       -4.2724933910   -1.5101069587    4.0958526249
C       -2.1776773551    0.1225981142    4.4189111495
C       -2.3492543423   -0.6030279133    3.2096374354
C       -1.4985354885   -1.1997773682    0.9056888591
C       -0.6867210470   -1.1501980025   -0.2079793935
C       -1.3497780076   -0.4371435998    2.1234417667
C       -0.2497337078    1.2842115506   -0.3635485603
C        0.9918297143   -0.3811868238   -1.7937828787
N       -3.0333027840    0.0441858687    5.4611554069
N       -3.4217361345   -1.4327340874    3.0574219827
N        0.0381600647   -0.1236503713   -0.7009454782
O       -0.3944272795    0.3105050550    2.3072299984
H       -4.8046911053   -0.8878444339    6.0830492775
H       -5.1373489336   -2.1579216683    4.0141219859
H       -1.3216695692    0.7784878834    4.5280464793
H       -2.2439860410   -1.9829697554    0.9121912346
H       -0.7388807017   -2.0377588883   -0.8318714886
H       -1.2720297383    1.3979763811    0.0099300537
H       -0.1559316855    1.9163245231   -1.2517514956
H        0.4548537883    1.6456565585    0.3920691065
H        0.8280629479    0.3193391535   -2.6187517601
H        0.8769301408   -1.3953308272   -2.1893558238
H        2.0171511629   -0.2688970970   -1.4269519801
24   

C       -4.1095596223   -0.8449938685    5.2761571869
C       -4.2333896211   -1.6261372864    4.1109551490
C       -2.2482657710    0.1418642613    4.4130660535
C       -2.3522306735   -0.6326164935    3.2263932189
C       -1.4375818495   -1.2360624583    0.9483084519
C       -0.7074214669   -1.1301505869   -0.2149245612
C       -1.3507522965   -0.4327926589    2.1469945195
C       -0.1226653135    1.2774684162   -0.3200818901
C        0.9586015831   -0.4134262714   -1.8363406190
N       -3.1175707901    0.0462553729    5.4424780575
N       -3.3686628370   -1.5321334432    3.0855170768
N        0.0783114649   -0.1372382502   -0.6875251050
O       -0.4527365274    0.3838370294    2.3215891885
H       -4.8424196352   -0.9690854213    6.0645820444
H       -5.0560879485   -2.3275278928    4.0365482054
H       -1.4375537205    0.8542368968    4.5135600576
H       -2.1425702551   -2.0555797462    0.9707089343
H       -0.8187711645   -1.9918035753   -0.8668599759
H       -1.1366344613    1.4446562309    0.0561364418
H        0.0088301518    1.9215902229   -1.1948325076
H        0.6049216741    1.5799129198    0.4396799962
H        0.7075101502    0.2418028651   -2.6765664182
H        0.8568976489   -1.4493622767   -2.1750783141
H        2.0031769843   -0.2498428184   -1.5527741176
24   

C       -4.1611188316   -1.0384143158    5.2441375615
C       -4.0862943725   -1.9025120810    4.1350925523
C       -2.6517524580    0.3524666608    4.2581057453
C       -2.5567551188   -0.5028449710    3.1272619885
C       -1.5270759145   -0.9974824839    0.8717003549
C       -0.7970772749   -0.9363281863   -0.3019619378
C       -1.6409912070   -0.1278209898    2.0157443199
C        0.3771970127    1.2555289497   -0.2985082578
C        0.6943084797   -0.4091397328   -2.1546135248
N       -3.4475948661    0.0978974059    5.3195775218
N       -3.2958659460   -1.6493279452    3.0774291452
N        0.0823792326   -0.0751386148   -0.8552301653
O       -0.9877372668    0.9032112006    2.1186673405
H       -4.8183912437   -1.3025643586    6.0640833606
H       -4.6863946181   -2.8048834114    4.1331144013
H       -2.0612703869    1.2608116711    4.2886896040
H       -2.1367271606   -1.8886463395    0.9241414753
H       -0.9811506257   -1.8191684557   -0.9074422004
H        0.9058827672    1.8693978196   -1.0338670431
H        1.0159555066    1.1666203127    0.5855126294
H       -0.5468030597    1.7858885957   -0.0541111409
H        0.5012343827    0.3888109266   -2.8789072827
H        0.2836802235   -1.3370237194   -2.5651102859
H        1.7754269630   -0.5353696313   -2.0388373632
24   

C       -4.0071926343   -0.9154340661    5.3367597628
C       -3.7829017182   -1.9202721907    4.3759254189
C       -2.9579244670    0.5962798510    3.9962463122
C       -2.7171073234   -0.3997292551    3.0119642401
C       -1.7574556139   -1.0296602556    0.7596176500
C       -1.0039566311   -0.9402337189   -0.3901528568
C       -1.9841780122   -0.0257730684    1.7746067114
C        0.7453562290    0.7198093888    0.1865139807
C        0.3726949138   -0.0397986278   -2.1824409036
N       -3.5994556724    0.3528045313    5.1597222121
N       -3.1444241806   -1.6793233543    3.2173016958
N       -0.0712110578   -0.0422867246   -0.7774563231
O       -1.6252788097    1.1381876158    1.6326191665
H       -4.5268940458   -1.1778129844    6.2506332080
H       -4.1359954187   -2.9247624924    4.5775241987
H       -2.6128018950    1.6090759492    3.8231479559
H       -2.2746427578   -1.9698635489    0.8924401403
H       -1.1832055245   -1.7591587696   -1.0808740784
H        1.7824671443    0.7822723879   -0.1568037800
H        0.7567564078    0.2293247365    1.1647416859
H        0.3579631997    1.7381555424    0.2913453583
H        0.1518619023    0.9293778603   -2.6409556418
H       -0.1388171182   -0.8145622644   -2.7623879183
H        1.4491272139   -0.2292631477   -2.2436665484
24   

C       -3.9778114067   -0.9011338372    5.3083369289
C       -3.6835407312   -1.9396015854    4.4036891734
C       -2.9951647975    0.5969879869    3.9036002312
C       -2.6862147807   -0.4327322053    2.9748610715
C       -1.6850483990   -1.1161754510    0.7567956178
C       -1.0075441760   -0.9746170104   -0.4359365312
C       -1.9688567400   -0.0803336883    1.7229003558
C        0.8101660073    0.5708105795    0.2341430927
C        0.3965139317   -0.0232579041   -2.1818587696
N       -3.6384138988    0.3773708084    5.0708562846
N       -3.0431079272   -1.7224342609    3.2414328783
N       -0.0246743276   -0.1127598080   -0.7730684033
O       -1.6759867067    1.0935563756    1.5188080595
H       -4.4963419323   -1.1452198559    6.2279262317
H       -3.9832798847   -2.9507511662    4.6527838224
H       -2.7067203097    1.6177226074    3.6805381937
H       -2.1602907510   -2.0737159305    0.9192769942
H       -1.2272216392   -1.7516352886   -1.1623714550
H        1.8552123381    0.5949295435   -0.0892239311
H        0.7786913432    0.0449516066    1.1933122559
H        0.4693642401    1.6014928766    0.3740894109
H        0.0951334897    0.9427327331   -2.5995835305
H       -0.0600622668   -0.8157929497   -2.7831831804
H        1.4831669944   -0.1256469042   -2.2644920492
24   

C       -3.9594286776   -0.8557569245    5.3282667536
C       -3.5979427675   -1.9146437902    4.4729260592
C       -3.0232054484    0.6301635416    3.8795388419
C       -2.6487685848   -0.4201075614    2.9993906842
C       -1.5889240426   -1.1393006235    0.8193245903
C       -1.0172925371   -0.9482983975   -0.4253713325
C       -1.9398225760   -0.0829904797    1.7389328737
C        0.8515542399    0.5268161098    0.2534598170
C        0.3847302504    0.0027481644   -2.1741569804
N       -3.6764699345    0.4270171564    5.0441973581
N       -2.9462519797   -1.7139434796    3.3139529165
N        0.0032157822   -0.1335389960   -0.7582619303
O       -1.7102472052    1.0949884907    1.4814316542
H       -4.4846786031   -1.0870920107    6.2473396468
H       -3.8547385715   -2.9281219294    4.7579437259
H       -2.7818827703    1.6539091539    3.6176519071
H       -2.0061881100   -2.1166688234    1.0186321535
H       -1.2946435654   -1.6895437069   -1.1691878259
H        1.8915569127    0.5605694092   -0.0850008751
H        0.8350790939   -0.0220300898    1.2000371560
H        0.5106342244    1.5526640432    0.4247170307
H        0.0570700219    0.9751399814   -2.5558587398
H       -0.0745043645   -0.7813846334   -2.7843672714
H        1.4702786684   -0.0787644400   -2.2879251080
24   

C       -3.9707280783   -0.8505267306    5.3386804125
C       -3.5332879740   -1.9131927491    4.5244187848
C       -3.0766865914    0.6402189970    3.8683745497
C       -2.6277318045   -0.4138405369    3.0288400552
C       -1.4873712244   -1.1348547852    0.8876276936
C       -1.0306995169   -0.9030799689   -0.4034627538
C       -1.9192635627   -0.0760583985    1.7687748210
C        0.8846510363    0.5201997687    0.2307988126
C        0.3629804625   -0.0056151545   -2.1889489696
N       -3.7467237745    0.4366505223    5.0233766749
N       -2.8637926728   -1.7119296014    3.3757201663
N        0.0270637522   -0.1544699043   -0.7631780163
O       -1.7523496741    1.1034336463    1.4713021395
H       -4.5075137123   -1.0825595641    6.2508882609
H       -3.7455182989   -2.9301146727    4.8328871806
H       -2.8838188176    1.6671277356    3.5800128235
H       -1.8350300674   -2.1317757178    1.1205755064
H       -1.3837082316   -1.6089841548   -1.1495504195
H        1.9095864075    0.6009967715   -0.1439061593
H        0.9231409157   -0.0467805038    1.1660584942
H        0.5104560142    1.5282604071    0.4347329069
H        0.0770954220    0.9924191867   -2.5366784151
H       -0.1629530180   -0.7477330892   -2.7978412198
H        1.4373626573   -0.1452846447   -2.3442426215
24   

C       -4.0151153728   -0.8742196178    5.3464161463
C       -3.4929306566   -1.9224815008    4.5639853447
C       -3.1631431954    0.6425980794    3.8776543788
C       -2.6304662234   -0.3968502371    3.0698894594
C       -1.3889933995   -1.0804451659    0.9687662336
C       -1.0378564453   -0.8233023927   -0.3585044527
C       -1.9153736038   -0.0392283091    1.8196601056
C        0.9334998467    0.5336409260    0.1897306869
C        0.3413139760   -0.0337103713   -2.2078881937
N       -3.8547498739    0.4187647769    5.0160764336
N       -2.8010507913   -1.7007334656    3.4324578094
N        0.0577879911   -0.1661547357   -0.7693851303
O       -1.8121159752    1.1408131086    1.4955971282
H       -4.5664180886   -1.1227084017    6.2455388192
H       -3.6571466015   -2.9451118927    4.8827375464
H       -3.0214617599    1.6739946553    3.5759118254
H       -1.6554854946   -2.0952207408    1.2296670946
H       -1.4867324840   -1.4868783135   -1.0917909558
H        1.9241454677    0.6945025107   -0.2465623287
H        1.0676191703   -0.0599193519    1.0994968243
H        0.5087206805    1.5074368794    0.4526844744
H        0.1338181036    0.9899341858   -2.5363460506
H       -0.2790568100   -0.7167965720   -2.7966420367
H        1.3902345064   -0.2708740500   -2.4113045561
24   

C       -4.0763918709   -0.9511302325    5.3573640277
C       -3.4490093732   -1.9579446965    4.5980889331
C       -3.3017109566    0.6225645398    3.9054891632
C       -2.6649021474   -0.3748668743    3.1210418606
C       -1.3085930983   -0.9621513571    1.0583168571
C       -1.0323479562   -0.7064833314   -0.2967186934
C       -1.9521130029    0.0311661123    1.8850022836
C        1.0141662800    0.5436755624    0.1305665430
C        0.3155678564   -0.0752018430   -2.2292659264
N       -4.0076669925    0.3493346473    5.0241846421
N       -2.7415356666   -1.6864665644    3.4872637530
N        0.0921035585   -0.1630569018   -0.7768243905
O       -1.9406120539    1.2099652851    1.5408652509
H       -4.6349661525   -1.2391248885    6.2400662710
H       -3.5431213410   -2.9893094789    4.9171453396
H       -3.2329926480    1.6603096923    3.6001074354
H       -1.4570456103   -1.9930954735    1.3478428707
H       -1.6013715582   -1.3056361344   -1.0015631211
H        1.9520418657    0.7776169484   -0.3826733863
H        1.2551491225   -0.0805803775    0.9968257947
H        0.5631922614    1.4800228408    0.4748143494
H        0.2029852942    0.9613754659   -2.5633041595
H       -0.4036624973   -0.6925733732   -2.7767224556
H        1.3216825382   -0.4265632124   -2.4785802685
24   

C       -3.8459199070   -0.9261330435    5.3569009378
C       -2.9460116186   -1.7533647369    4.6571812589
C       -4.0507549009    0.4018242028    3.5183212873
C       -3.1456957131   -0.4164592861    2.7930509638
C       -1.8982447211   -0.8740691575    0.6325614903
C       -1.3021433039   -0.3520241987   -0.5107160412
C       -2.8067528553   -0.0504125972    1.3965498142
C        0.9574736755   -0.1695883599    0.4190362262
C        0.4000384774    0.7270151064   -1.8943879412
N       -4.4092009751    0.1589668858    4.7978758591
N       -2.5894973573   -1.5132237573    3.3831764291
N       -0.0270937566    0.0595036147   -0.6529545642
O       -3.2926194210    0.9538368876    0.8818678511
H       -4.0896156131   -1.1760829740    6.3826952927
H       -2.5234940366   -2.6133765353    5.1634165986
H       -4.4829293193    1.2701859975    3.0345407055
H       -1.3955311806   -1.6726458572    1.1598880980
H       -2.0036499078    0.0842470092   -1.2178855301
H        1.2272470144   -1.2295301042    0.4639738502
H        0.5510777602    0.1422459751    1.3865728371
H        1.8664518648    0.4121396691    0.2362353119
H        1.0314306702    1.5909682867   -1.6648354445
H       -0.4628794610    1.0854251685   -2.4646648961
H        0.9632613750    0.0269030839   -2.5199849185
24   

C       -3.9506863800   -0.9757584705    5.3483397310
C       -2.9333187297   -1.7094530552    4.7076210489
C       -4.2201537644    0.2848907903    3.4712460388
C       -3.1971490604   -0.4395181337    2.8051947664
C       -1.7983620649   -0.7910668878    0.7179543541
C       -1.2554028616   -0.2463725925   -0.4298881545
C       -2.8383411926   -0.0645586309    1.4161157633
C        1.0814749992   -0.2560595140    0.3249874871
C        0.4147099118    0.7616253433   -1.9076750481
N       -4.6063512167    0.0277596400    4.7398496410
N       -2.5487428175   -1.4549813723    3.4445794359
N        0.0357580774    0.0866061450   -0.6547459977
O       -3.4150063707    0.8647912570    0.8559288680
H       -4.2107122534   -1.2317891975    6.3686090996
H       -2.4407683059   -2.5066935355    5.2518620340
H       -4.7243235037    1.0898685955    2.9490395819
H       -1.2344976812   -1.5260530748    1.2748669226
H       -1.9758924136    0.2299001457   -1.0910412378
H        1.2637883276   -1.3354753652    0.3204830044
H        0.7821042877    0.0570207293    1.3303735847
H        2.0186337268    0.2541744459    0.0811791014
H        1.1364087489    1.5597071379   -1.7077421428
H       -0.4583261957    1.2133461993   -2.3894248796
H        0.8601644845    0.0403655500   -2.6005851962
24   

C       -4.0268246462   -1.0458076444    5.3525694887
C       -2.9123819293   -1.6761807197    4.7654184444
C       -4.3376434979    0.1690519031    3.4521069535
C       -3.2172468990   -0.4515694896    2.8398303099
C       -1.6902465153   -0.6684362830    0.8245126522
C       -1.2055934150   -0.1196954082   -0.3397044608
C       -2.8377482657   -0.0525357718    1.4631490945
C        1.1808649378   -0.3082653986    0.2266669236
C        0.4148153950    0.7711610033   -1.9436188754
N       -4.7525957912   -0.1178923780    4.7050461950
N       -2.4984276099   -1.3914574234    3.5181206770
N        0.0877957243    0.1209706189   -0.6632451466
O       -3.4875789587    0.8033048532    0.8667182237
H       -4.3057529530   -1.3207588935    6.3628712850
H       -2.3673865635   -2.4164253426    5.3393319898
H       -4.8968300986    0.9154625594    2.8997555032
H       -1.0792690267   -1.3488993405    1.4004517094
H       -1.9440435632    0.3754478015   -0.9663354993
H        1.2618044894   -1.4000223850    0.2256414754
H        1.0021682752    0.0417937135    1.2483824123
H        2.1358687561    0.1086511806   -0.1082955511
H        1.2184155773    1.5013575859   -1.8064894369
H       -0.4537052223    1.3018852775   -2.3465491120
H        0.7336120461    0.0198635533   -2.6734874830
24   

C       -4.1019887993   -1.1252867372    5.3346205472
C       -2.9029175178   -1.6437036913    4.8076956125
C       -4.4357138889    0.0490708934    3.4128309000
C       -3.2305410559   -0.4593690002    2.8608584906
C       -1.5919901629   -0.5338276721    0.9257402065
C       -1.1515387412   -0.0024913018   -0.2593363654
C       -2.8262820690   -0.0314188366    1.4999832321
C        1.2482087852   -0.3905030236    0.1313055810
C        0.4143557925    0.7300139587   -1.9916629769
N       -4.8823010286   -0.2746899629    4.6457170679
N       -2.4571685949   -1.3219935502    3.5804766797
N        0.1306334915    0.1237472106   -0.6797407314
O       -3.5314387305    0.7501996657    0.8654955206
H       -4.4028667201   -1.4247322437    6.3315706789
H       -2.3173481083   -2.3258093359    5.4128223511
H       -5.0379491794    0.7350117456    2.8282645782
H       -0.9497875451   -1.1672387600    1.5208061335
H       -1.8987065439    0.5062573923   -0.8642133911
H        1.2195932485   -1.4844517547    0.1631633256
H        1.1939829571    0.0046756601    1.1507290354
H        2.2076468471   -0.0840551804   -0.2972198376
H        1.2818835548    1.3939455193   -1.9253856497
H       -0.4357824229    1.3250600736   -2.3403243968
H        0.6174781769   -0.0531358203   -2.7293553287
24   

C       -4.2876172629   -1.1537653318    5.2364045841
C       -4.3654766692   -0.4344050860    4.0278026627
C       -2.1669711633   -1.7966563621    4.7140637687
C       -2.2217158409   -1.0788082551    3.4903044503
C       -1.0817599591   -0.3640804278    1.3403986046
C       -0.0069655727   -0.4473399251    0.4962869455
C       -1.0405879459   -1.0945406155    2.5940329725
C       -1.1367626658    0.4857725538   -1.4835231312
C        1.3048950971   -0.2126310124   -1.5555534308
N       -3.1902214035   -1.8425764911    5.5944142415
N       -3.3474446039   -0.3880121324    3.1504089779
N        0.0416192895   -0.0866183743   -0.8087986407
O       -0.0342096311   -1.7227778970    2.9156954009
H       -5.1450286348   -1.1496498532    5.8989251918
H       -5.2785080894    0.1012057904    3.7958259052
H       -1.2648785040   -2.3407832437    4.9691808988
H       -1.9844444654    0.1534171749    1.0490733635
H        0.8897721075   -0.9187720629    0.8916978953
H       -1.3798934833    1.4633607370   -1.0547750032
H       -1.9979424966   -0.1819396977   -1.3794258190
H       -0.9413882447    0.6193373999   -2.5522010715
H        1.1161542840   -0.6026742237   -2.5605949403
H        1.9899833113   -0.9028355995   -1.0528738732
H        1.7914918490    0.7649009797   -1.6354555977
24   

C       -4.2752461789   -1.1565188464    5.2388800520
C       -4.3921389180   -0.5144205896    3.9905678040
C       -2.1137227109   -1.6876024696    4.7603119978
C       -2.2076025178   -1.0471800950    3.4965790383
C       -1.1081744482   -0.3966032440    1.3068941756
C       -0.0100437265   -0.4225271490    0.4893267757
C       -1.0238906758   -1.0417877648    2.6034543446
C       -1.0194911319    0.8580533713   -1.3553272488
C        1.3436782951   -0.0572063710   -1.5146176888
N       -3.1373216542   -1.7495687351    5.6392706704
N       -3.3736491767   -0.4517233526    3.1147271508
N        0.1003436170    0.1199367658   -0.7447931056
O        0.0175958676   -1.5871749552    2.9624760339
H       -5.1355491279   -1.1711829380    5.8974908843
H       -5.3368505568   -0.0544989304    3.7254093415
H       -1.1799705765   -2.1565853897    5.0485622703
H       -2.0258357158    0.0857367320    1.0025755789
H        0.8708504232   -0.9388040972    0.8636103345
H       -1.3293208125    1.6845845846   -0.7078708893
H       -1.8686146092    0.1874028168   -1.5221929850
H       -0.7216708965    1.2788314992   -2.3209405454
H        1.1848544730   -0.7785464003   -2.3227118662
H        2.1525896626   -0.4258514956   -0.8756835266
H        1.6643216301    0.8978129013   -1.9425543585
